REMARK  Name = files/pga_6_unit.pdb
REMARK  17 active torsions:
REMARK  status: ('A' for Active; 'I' for Inactive)
REMARK    1  A    between atoms: O_1  and  C_2
REMARK    2  A    between atoms: O_1  and  C_15
REMARK    3  A    between atoms: C_2  and  C_4
REMARK    4  A    between atoms: C_4  and  O_5
REMARK    5  A    between atoms: O_5  and  C_6
REMARK    6  A    between atoms: C_6  and  C_8
REMARK    7  A    between atoms: C_8  and  O_9
REMARK    8  A    between atoms: O_9  and  C_10
REMARK    9  A    between atoms: C_10  and  C_12
REMARK   10  A    between atoms: C_12  and  O_13
REMARK   11  A    between atoms: C_15  and  C_16
REMARK   12  A    between atoms: C_16  and  O_18
REMARK   13  A    between atoms: O_18  and  C_19
REMARK   14  A    between atoms: C_19  and  C_20
REMARK   15  A    between atoms: C_20  and  O_22
REMARK   16  A    between atoms: O_22  and  C_23
REMARK   17  A    between atoms: C_23  and  C_24
REMARK                            x       y       z     vdW  Elec       q    Type
REMARK                         _______ _______ _______ _____ _____    ______ ____
ROOT
ATOM      1  O   UNL     1       0.509 -11.555 -22.860  0.00  0.00    -0.451 OA
ENDROOT
BRANCH   1   2
ATOM      2  C   UNL     1      -0.784 -11.872 -23.156  0.00  0.00    +0.346 C 
ATOM      3  O   UNL     1      -1.516 -12.554 -22.451  0.00  0.00    -0.247 OA
BRANCH   2   4
ATOM      4  C   UNL     1      -1.179 -11.326 -24.523  0.00  0.00    +0.189 C 
BRANCH   4   5
ATOM      5  O   UNL     1      -0.443 -10.188 -24.975  0.00  0.00    -0.451 OA
BRANCH   5   6
ATOM      6  C   UNL     1      -0.668  -9.054 -24.254  0.00  0.00    +0.346 C 
ATOM      7  O   UNL     1      -1.391  -8.983 -23.269  0.00  0.00    -0.247 OA
BRANCH   6   8
ATOM      8  C   UNL     1       0.145  -7.900 -24.819  0.00  0.00    +0.189 C 
BRANCH   8   9
ATOM      9  O   UNL     1      -0.416  -6.625 -24.500  0.00  0.00    -0.452 OA
BRANCH   9  10
ATOM     10  C   UNL     1      -1.514  -6.305 -25.244  0.00  0.00    +0.333 C 
ATOM     11  O   UNL     1      -1.975  -6.995 -26.145  0.00  0.00    -0.248 OA
BRANCH  10  12
ATOM     12  C   UNL     1      -2.045  -4.934 -24.839  0.00  0.00    +0.141 C 
BRANCH  12  13
ATOM     13  O   UNL     1      -3.169  -4.498 -25.589  0.00  0.00    -0.384 OA
ATOM     14  H   UNL     1      -2.919  -4.406 -26.522  0.00  0.00    +0.000 HD
ENDBRANCH  12  13
ENDBRANCH  10  12
ENDBRANCH   9  10
ENDBRANCH   8   9
ENDBRANCH   6   8
ENDBRANCH   5   6
ENDBRANCH   4   5
ENDBRANCH   2   4
ENDBRANCH   1   2
BRANCH   1  15
ATOM     15  C   UNL     1       0.985 -12.115 -21.635  0.00  0.00    +0.189 C 
BRANCH  15  16
ATOM     16  C   UNL     1       1.382 -13.574 -21.770  0.00  0.00    +0.346 C 
ATOM     17  O   UNL     1       1.329 -14.239 -22.799  0.00  0.00    -0.247 OA
BRANCH  16  18
ATOM     18  O   UNL     1       1.874 -14.030 -20.578  0.00  0.00    -0.451 OA
BRANCH  18  19
ATOM     19  C   UNL     1       2.227 -15.418 -20.573  0.00  0.00    +0.189 C 
BRANCH  19  20
ATOM     20  C   UNL     1       1.014 -16.332 -20.493  0.00  0.00    +0.346 C 
ATOM     21  O   UNL     1      -0.143 -15.961 -20.355  0.00  0.00    -0.247 OA
BRANCH  20  22
ATOM     22  O   UNL     1       1.403 -17.635 -20.591  0.00  0.00    -0.451 OA
BRANCH  22  23
ATOM     23  C   UNL     1       0.321 -18.568 -20.556  0.00  0.00    +0.189 C 
BRANCH  23  24
ATOM     24  C   UNL     1      -0.252 -18.793 -19.166  0.00  0.00    +0.343 C 
ATOM     25  O   UNL     1       0.180 -18.360 -18.110  0.00  0.00    -0.247 OA
ATOM     26  O   UNL     1      -1.328 -19.610 -19.185  0.00  0.00    -0.478 OA
ENDBRANCH  23  24
ENDBRANCH  22  23
ENDBRANCH  20  22
ENDBRANCH  19  20
ENDBRANCH  18  19
ENDBRANCH  16  18
ENDBRANCH  15  16
ENDBRANCH   1  15
TORSDOF 17
