REMARK  Name = files/pga_12_unit.pdb
REMARK  35 active torsions:
REMARK  status: ('A' for Active; 'I' for Inactive)
REMARK    1  A    between atoms: O_1  and  C_2
REMARK    2  A    between atoms: O_1  and  C_27
REMARK    3  A    between atoms: C_2  and  C_4
REMARK    4  A    between atoms: C_4  and  O_5
REMARK    5  A    between atoms: O_5  and  C_6
REMARK    6  A    between atoms: C_6  and  C_8
REMARK    7  A    between atoms: C_8  and  O_9
REMARK    8  A    between atoms: O_9  and  C_10
REMARK    9  A    between atoms: C_10  and  C_12
REMARK   10  A    between atoms: C_12  and  O_13
REMARK   11  A    between atoms: O_13  and  C_14
REMARK   12  A    between atoms: C_14  and  C_16
REMARK   13  A    between atoms: C_16  and  O_17
REMARK   14  A    between atoms: O_17  and  C_18
REMARK   15  A    between atoms: C_18  and  C_20
REMARK   16  A    between atoms: C_20  and  O_21
REMARK   17  A    between atoms: O_21  and  C_22
REMARK   18  A    between atoms: C_22  and  C_24
REMARK   19  A    between atoms: C_24  and  O_25
REMARK   20  A    between atoms: C_27  and  C_28
REMARK   21  A    between atoms: C_28  and  O_30
REMARK   22  A    between atoms: O_30  and  C_31
REMARK   23  A    between atoms: C_31  and  C_32
REMARK   24  A    between atoms: C_32  and  O_34
REMARK   25  A    between atoms: O_34  and  C_35
REMARK   26  A    between atoms: C_35  and  C_36
REMARK   27  A    between atoms: C_36  and  O_38
REMARK   28  A    between atoms: O_38  and  C_39
REMARK   29  A    between atoms: C_39  and  C_40
REMARK   30  A    between atoms: C_40  and  O_42
REMARK   31  A    between atoms: O_42  and  C_43
REMARK   32  A    between atoms: C_43  and  C_44
REMARK   33  A    between atoms: C_44  and  O_46
REMARK   34  A    between atoms: O_46  and  C_47
REMARK   35  A    between atoms: C_47  and  C_48
REMARK                            x       y       z     vdW  Elec       q    Type
REMARK                         _______ _______ _______ _____ _____    ______ ____
ROOT
ATOM      1  O   UNL     1      -0.359 -14.023 -19.942  0.00  0.00    -0.451 OA
ENDROOT
BRANCH   1   2
ATOM      2  C   UNL     1      -0.299 -13.096 -18.945  0.00  0.00    +0.346 C 
ATOM      3  O   UNL     1      -0.512 -11.899 -19.085  0.00  0.00    -0.247 OA
BRANCH   2   4
ATOM      4  C   UNL     1       0.161 -13.724 -17.637  0.00  0.00    +0.189 C 
BRANCH   4   5
ATOM      5  O   UNL     1      -0.164 -15.104 -17.476  0.00  0.00    -0.451 OA
BRANCH   5   6
ATOM      6  C   UNL     1      -1.467 -15.346 -17.162  0.00  0.00    +0.346 C 
ATOM      7  O   UNL     1      -2.306 -14.484 -16.936  0.00  0.00    -0.247 OA
BRANCH   6   8
ATOM      8  C   UNL     1      -1.721 -16.843 -17.037  0.00  0.00    +0.189 C 
BRANCH   8   9
ATOM      9  O   UNL     1      -0.892 -17.663 -17.864  0.00  0.00    -0.451 OA
BRANCH   9  10
ATOM     10  C   UNL     1      -1.159 -17.556 -19.199  0.00  0.00    +0.346 C 
ATOM     11  O   UNL     1      -2.034 -16.846 -19.677  0.00  0.00    -0.247 OA
BRANCH  10  12
ATOM     12  C   UNL     1      -0.241 -18.480 -19.988  0.00  0.00    +0.189 C 
BRANCH  12  13
ATOM     13  O   UNL     1      -0.766 -18.790 -21.282  0.00  0.00    -0.451 OA
BRANCH  13  14
ATOM     14  C   UNL     1      -0.575 -17.827 -22.229  0.00  0.00    +0.346 C 
ATOM     15  O   UNL     1       0.066 -16.792 -22.056  0.00  0.00    -0.247 OA
BRANCH  14  16
ATOM     16  C   UNL     1      -1.340 -18.158 -23.503  0.00  0.00    +0.189 C 
BRANCH  16  17
ATOM     17  O   UNL     1      -1.537 -19.553 -23.735  0.00  0.00    -0.451 OA
BRANCH  17  18
ATOM     18  C   UNL     1      -0.454 -20.196 -24.251  0.00  0.00    +0.346 C 
ATOM     19  O   UNL     1       0.630 -19.673 -24.471  0.00  0.00    -0.247 OA
BRANCH  18  20
ATOM     20  C   UNL     1      -0.768 -21.668 -24.476  0.00  0.00    +0.189 C 
BRANCH  20  21
ATOM     21  O   UNL     1       0.013 -22.242 -25.527  0.00  0.00    -0.452 OA
BRANCH  21  22
ATOM     22  C   UNL     1      -0.424 -21.920 -26.780  0.00  0.00    +0.333 C 
ATOM     23  O   UNL     1      -1.420 -21.250 -27.023  0.00  0.00    -0.248 OA
BRANCH  22  24
ATOM     24  C   UNL     1       0.466 -22.568 -27.833  0.00  0.00    +0.141 C 
BRANCH  24  25
ATOM     25  O   UNL     1       0.066 -22.316 -29.172  0.00  0.00    -0.384 OA
ATOM     26  H   UNL     1      -0.816 -22.690 -29.322  0.00  0.00    +0.000 HD
ENDBRANCH  24  25
ENDBRANCH  22  24
ENDBRANCH  21  22
ENDBRANCH  20  21
ENDBRANCH  18  20
ENDBRANCH  17  18
ENDBRANCH  16  17
ENDBRANCH  14  16
ENDBRANCH  13  14
ENDBRANCH  12  13
ENDBRANCH  10  12
ENDBRANCH   9  10
ENDBRANCH   8   9
ENDBRANCH   6   8
ENDBRANCH   5   6
ENDBRANCH   4   5
ENDBRANCH   2   4
ENDBRANCH   1   2
BRANCH   1  27
ATOM     27  C   UNL     1      -0.670 -13.485 -21.229  0.00  0.00    +0.189 C 
BRANCH  27  28
ATOM     28  C   UNL     1       0.495 -12.730 -21.857  0.00  0.00    +0.346 C 
ATOM     29  O   UNL     1       1.603 -12.585 -21.354  0.00  0.00    -0.247 OA
BRANCH  28  30
ATOM     30  O   UNL     1       0.112 -12.199 -23.055  0.00  0.00    -0.451 OA
BRANCH  30  31
ATOM     31  C   UNL     1       0.940 -11.122 -23.512  0.00  0.00    +0.189 C 
BRANCH  31  32
ATOM     32  C   UNL     1       0.512  -9.828 -22.836  0.00  0.00    +0.346 C 
ATOM     33  O   UNL     1      -0.439  -9.713 -22.074  0.00  0.00    -0.247 OA
BRANCH  32  34
ATOM     34  O   UNL     1       1.331  -8.803 -23.205  0.00  0.00    -0.451 OA
BRANCH  34  35
ATOM     35  C   UNL     1       0.992  -7.550 -22.608  0.00  0.00    +0.189 C 
BRANCH  35  36
ATOM     36  C   UNL     1      -0.175  -6.838 -23.281  0.00  0.00    +0.346 C 
ATOM     37  O   UNL     1      -0.754  -7.217 -24.291  0.00  0.00    -0.247 OA
BRANCH  36  38
ATOM     38  O   UNL     1      -0.412  -5.654 -22.646  0.00  0.00    -0.451 OA
BRANCH  38  39
ATOM     39  C   UNL     1      -1.175  -4.707 -23.404  0.00  0.00    +0.189 C 
BRANCH  39  40
ATOM     40  C   UNL     1      -0.252  -3.915 -24.318  0.00  0.00    +0.346 C 
ATOM     41  O   UNL     1       0.968  -4.030 -24.356  0.00  0.00    -0.247 OA
BRANCH  40  42
ATOM     42  O   UNL     1      -0.961  -2.985 -25.020  0.00  0.00    -0.451 OA
BRANCH  42  43
ATOM     43  C   UNL     1      -0.176  -1.868 -25.465  0.00  0.00    +0.189 C 
BRANCH  43  44
ATOM     44  C   UNL     1       0.007  -0.905 -24.302  0.00  0.00    +0.346 C 
ATOM     45  O   UNL     1      -0.460  -1.070 -23.178  0.00  0.00    -0.247 OA
BRANCH  44  46
ATOM     46  O   UNL     1       0.768   0.168 -24.668  0.00  0.00    -0.451 OA
BRANCH  46  47
ATOM     47  C   UNL     1       0.974   1.114 -23.614  0.00  0.00    +0.189 C 
BRANCH  47  48
ATOM     48  C   UNL     1      -0.220   2.023 -23.381  0.00  0.00    +0.343 C 
ATOM     49  O   UNL     1      -1.241   2.088 -24.045  0.00  0.00    -0.247 OA
ATOM     50  O   UNL     1      -0.037   2.847 -22.322  0.00  0.00    -0.478 OA
ENDBRANCH  47  48
ENDBRANCH  46  47
ENDBRANCH  44  46
ENDBRANCH  43  44
ENDBRANCH  42  43
ENDBRANCH  40  42
ENDBRANCH  39  40
ENDBRANCH  38  39
ENDBRANCH  36  38
ENDBRANCH  35  36
ENDBRANCH  34  35
ENDBRANCH  32  34
ENDBRANCH  31  32
ENDBRANCH  30  31
ENDBRANCH  28  30
ENDBRANCH  27  28
ENDBRANCH   1  27
TORSDOF 35
