REMARK  Name = files/pga_3_unit.pdb
REMARK  8 active torsions:
REMARK  status: ('A' for Active; 'I' for Inactive)
REMARK    1  A    between atoms: C_1  and  O_3
REMARK    2  A    between atoms: C_1  and  C_8
REMARK    3  A    between atoms: O_3  and  C_4
REMARK    4  A    between atoms: C_4  and  C_5
REMARK    5  A    between atoms: C_8  and  O_9
REMARK    6  A    between atoms: O_9  and  C_10
REMARK    7  A    between atoms: C_10  and  C_12
REMARK    8  A    between atoms: C_12  and  O_13
REMARK                            x       y       z     vdW  Elec       q    Type
REMARK                         _______ _______ _______ _____ _____    ______ ____
ROOT
ATOM      1  C   UNL     1      -0.611 -12.154 -23.488  0.00  0.00    +0.346 C 
ATOM      2  O   UNL     1      -1.234 -13.080 -22.979  0.00  0.00    -0.247 OA
ENDROOT
BRANCH   1   3
ATOM      3  O   UNL     1      -1.176 -11.100 -24.137  0.00  0.00    -0.451 OA
BRANCH   3   4
ATOM      4  C   UNL     1      -2.608 -11.117 -24.152  0.00  0.00    +0.189 C 
BRANCH   4   5
ATOM      5  C   UNL     1      -3.172 -12.002 -25.246  0.00  0.00    +0.343 C 
ATOM      6  O   UNL     1      -2.543 -12.610 -26.099  0.00  0.00    -0.247 OA
ATOM      7  O   UNL     1      -4.521 -12.041 -25.230  0.00  0.00    -0.478 OA
ENDBRANCH   4   5
ENDBRANCH   3   4
ENDBRANCH   1   3
BRANCH   1   8
ATOM      8  C   UNL     1       0.905 -12.027 -23.483  0.00  0.00    +0.189 C 
BRANCH   8   9
ATOM      9  O   UNL     1       1.503 -12.686 -22.362  0.00  0.00    -0.452 OA
BRANCH   9  10
ATOM     10  C   UNL     1       1.408 -11.991 -21.192  0.00  0.00    +0.333 C 
ATOM     11  O   UNL     1       0.930 -10.867 -21.081  0.00  0.00    -0.248 OA
BRANCH  10  12
ATOM     12  C   UNL     1       2.036 -12.786 -20.051  0.00  0.00    +0.141 C 
BRANCH  12  13
ATOM     13  O   UNL     1       2.026 -12.128 -18.792  0.00  0.00    -0.384 OA
ATOM     14  H   UNL     1       2.555 -11.317 -18.847  0.00  0.00    +0.000 HD
ENDBRANCH  12  13
ENDBRANCH  10  12
ENDBRANCH   9  10
ENDBRANCH   8   9
ENDBRANCH   1   8
TORSDOF 8
