REMARK  Name = files/pga_2_unit.pdb
REMARK  5 active torsions:
REMARK  status: ('A' for Active; 'I' for Inactive)
REMARK    1  A    between atoms: C_1  and  O_3
REMARK    2  A    between atoms: C_1  and  C_8
REMARK    3  A    between atoms: O_3  and  C_4
REMARK    4  A    between atoms: C_4  and  C_5
REMARK    5  A    between atoms: C_8  and  O_9
REMARK                            x       y       z     vdW  Elec       q    Type
REMARK                         _______ _______ _______ _____ _____    ______ ____
ROOT
ATOM      1  C   UNL     1       0.282 -12.115 -23.245  0.00  0.00    +0.333 C 
ATOM      2  O   UNL     1      -0.322 -13.182 -23.248  0.00  0.00    -0.248 OA
ENDROOT
BRANCH   1   3
ATOM      3  O   UNL     1      -0.296 -10.884 -23.255  0.00  0.00    -0.452 OA
BRANCH   3   4
ATOM      4  C   UNL     1      -1.725 -10.904 -23.230  0.00  0.00    +0.189 C 
BRANCH   4   5
ATOM      5  C   UNL     1      -2.297 -11.205 -21.855  0.00  0.00    +0.343 C 
ATOM      6  O   UNL     1      -1.673 -11.416 -20.828  0.00  0.00    -0.247 OA
ATOM      7  O   UNL     1      -3.647 -11.184 -21.847  0.00  0.00    -0.478 OA
ENDBRANCH   4   5
ENDBRANCH   3   4
ENDBRANCH   1   3
BRANCH   1   8
ATOM      8  C   UNL     1       1.799 -11.995 -23.212  0.00  0.00    +0.141 C 
BRANCH   8   9
ATOM      9  O   UNL     1       2.456 -13.255 -23.287  0.00  0.00    -0.384 OA
ATOM     10  H   UNL     1       2.207 -13.795 -22.521  0.00  0.00    +0.000 HD
ENDBRANCH   8   9
ENDBRANCH   1   8
TORSDOF 5
