REMARK  Name = files/pga_8_unit.pdb
REMARK  23 active torsions:
REMARK  status: ('A' for Active; 'I' for Inactive)
REMARK    1  A    between atoms: O_1  and  C_2
REMARK    2  A    between atoms: O_1  and  C_19
REMARK    3  A    between atoms: C_2  and  C_4
REMARK    4  A    between atoms: C_4  and  O_5
REMARK    5  A    between atoms: O_5  and  C_6
REMARK    6  A    between atoms: C_6  and  C_8
REMARK    7  A    between atoms: C_8  and  O_9
REMARK    8  A    between atoms: O_9  and  C_10
REMARK    9  A    between atoms: C_10  and  C_12
REMARK   10  A    between atoms: C_12  and  O_13
REMARK   11  A    between atoms: O_13  and  C_14
REMARK   12  A    between atoms: C_14  and  C_16
REMARK   13  A    between atoms: C_16  and  O_17
REMARK   14  A    between atoms: C_19  and  C_20
REMARK   15  A    between atoms: C_20  and  O_22
REMARK   16  A    between atoms: O_22  and  C_23
REMARK   17  A    between atoms: C_23  and  C_24
REMARK   18  A    between atoms: C_24  and  O_26
REMARK   19  A    between atoms: O_26  and  C_27
REMARK   20  A    between atoms: C_27  and  C_28
REMARK   21  A    between atoms: C_28  and  O_30
REMARK   22  A    between atoms: O_30  and  C_31
REMARK   23  A    between atoms: C_31  and  C_32
REMARK                            x       y       z     vdW  Elec       q    Type
REMARK                         _______ _______ _______ _____ _____    ______ ____
ROOT
ATOM      1  O   UNL     1      -1.459 -10.097 -20.340  0.00  0.00    -0.451 OA
ENDROOT
BRANCH   1   2
ATOM      2  C   UNL     1      -2.076 -11.054 -21.093  0.00  0.00    +0.346 C 
ATOM      3  O   UNL     1      -3.063 -10.861 -21.791  0.00  0.00    -0.247 OA
BRANCH   2   4
ATOM      4  C   UNL     1      -1.375 -12.391 -20.900  0.00  0.00    +0.189 C 
BRANCH   4   5
ATOM      5  O   UNL     1      -2.233 -13.498 -21.178  0.00  0.00    -0.451 OA
BRANCH   5   6
ATOM      6  C   UNL     1      -2.369 -13.804 -22.500  0.00  0.00    +0.346 C 
ATOM      7  O   UNL     1      -1.808 -13.220 -23.417  0.00  0.00    -0.247 OA
BRANCH   6   8
ATOM      8  C   UNL     1      -3.375 -14.938 -22.683  0.00  0.00    +0.189 C 
BRANCH   8   9
ATOM      9  O   UNL     1      -3.521 -15.818 -21.565  0.00  0.00    -0.451 OA
BRANCH   9  10
ATOM     10  C   UNL     1      -2.416 -16.572 -21.303  0.00  0.00    +0.346 C 
ATOM     11  O   UNL     1      -1.360 -16.501 -21.919  0.00  0.00    -0.247 OA
BRANCH  10  12
ATOM     12  C   UNL     1      -2.663 -17.477 -20.108  0.00  0.00    +0.189 C 
BRANCH  12  13
ATOM     13  O   UNL     1      -1.804 -18.621 -20.102  0.00  0.00    -0.452 OA
BRANCH  13  14
ATOM     14  C   UNL     1      -2.169 -19.586 -20.994  0.00  0.00    +0.333 C 
ATOM     15  O   UNL     1      -3.165 -19.543 -21.704  0.00  0.00    -0.248 OA
BRANCH  14  16
ATOM     16  C   UNL     1      -1.194 -20.757 -20.933  0.00  0.00    +0.141 C 
BRANCH  16  17
ATOM     17  O   UNL     1      -1.517 -21.830 -21.806  0.00  0.00    -0.384 OA
ATOM     18  H   UNL     1      -2.377 -22.202 -21.557  0.00  0.00    +0.000 HD
ENDBRANCH  16  17
ENDBRANCH  14  16
ENDBRANCH  13  14
ENDBRANCH  12  13
ENDBRANCH  10  12
ENDBRANCH   9  10
ENDBRANCH   8   9
ENDBRANCH   6   8
ENDBRANCH   5   6
ENDBRANCH   4   5
ENDBRANCH   2   4
ENDBRANCH   1   2
BRANCH   1  19
ATOM     19  C   UNL     1      -2.039  -8.794 -20.447  0.00  0.00    +0.189 C 
BRANCH  19  20
ATOM     20  C   UNL     1      -1.635  -8.007 -21.687  0.00  0.00    +0.346 C 
ATOM     21  O   UNL     1      -2.015  -6.867 -21.923  0.00  0.00    -0.247 OA
BRANCH  20  22
ATOM     22  O   UNL     1      -0.825  -8.735 -22.500  0.00  0.00    -0.451 OA
BRANCH  22  23
ATOM     23  C   UNL     1      -0.649  -8.180 -23.797  0.00  0.00    +0.189 C 
BRANCH  23  24
ATOM     24  C   UNL     1       0.226  -6.942 -23.929  0.00  0.00    +0.346 C 
ATOM     25  O   UNL     1       0.126  -6.125 -24.838  0.00  0.00    -0.247 OA
BRANCH  24  26
ATOM     26  O   UNL     1       1.243  -6.957 -23.016  0.00  0.00    -0.451 OA
BRANCH  26  27
ATOM     27  C   UNL     1       2.378  -6.187 -23.433  0.00  0.00    +0.189 C 
BRANCH  27  28
ATOM     28  C   UNL     1       3.056  -6.853 -24.623  0.00  0.00    +0.346 C 
ATOM     29  O   UNL     1       2.715  -7.932 -25.105  0.00  0.00    -0.247 OA
BRANCH  28  30
ATOM     30  O   UNL     1       4.095  -6.100 -25.081  0.00  0.00    -0.451 OA
BRANCH  30  31
ATOM     31  C   UNL     1       4.744  -6.667 -26.220  0.00  0.00    +0.189 C 
BRANCH  31  32
ATOM     32  C   UNL     1       5.600  -7.882 -25.901  0.00  0.00    +0.343 C 
ATOM     33  O   UNL     1       5.875  -8.321 -24.796  0.00  0.00    -0.247 OA
ATOM     34  O   UNL     1       6.104  -8.458 -27.014  0.00  0.00    -0.478 OA
ENDBRANCH  31  32
ENDBRANCH  30  31
ENDBRANCH  28  30
ENDBRANCH  27  28
ENDBRANCH  26  27
ENDBRANCH  24  26
ENDBRANCH  23  24
ENDBRANCH  22  23
ENDBRANCH  20  22
ENDBRANCH  19  20
ENDBRANCH   1  19
TORSDOF 23
