REMARK  Name = files/pga_5_unit.pdb
REMARK  14 active torsions:
REMARK  status: ('A' for Active; 'I' for Inactive)
REMARK    1  A    between atoms: C_1  and  O_3
REMARK    2  A    between atoms: C_1  and  C_12
REMARK    3  A    between atoms: O_3  and  C_4
REMARK    4  A    between atoms: C_4  and  C_5
REMARK    5  A    between atoms: C_5  and  O_7
REMARK    6  A    between atoms: O_7  and  C_8
REMARK    7  A    between atoms: C_8  and  C_9
REMARK    8  A    between atoms: C_12  and  O_13
REMARK    9  A    between atoms: O_13  and  C_14
REMARK   10  A    between atoms: C_14  and  C_16
REMARK   11  A    between atoms: C_16  and  O_17
REMARK   12  A    between atoms: O_17  and  C_18
REMARK   13  A    between atoms: C_18  and  C_20
REMARK   14  A    between atoms: C_20  and  O_21
REMARK                            x       y       z     vdW  Elec       q    Type
REMARK                         _______ _______ _______ _____ _____    ______ ____
ROOT
ATOM      1  C   UNL     1      -0.352 -13.074 -22.136  0.00  0.00    +0.346 C 
ATOM      2  O   UNL     1      -0.488 -13.530 -21.009  0.00  0.00    -0.247 OA
ENDROOT
BRANCH   1   3
ATOM      3  O   UNL     1      -0.390 -13.806 -23.285  0.00  0.00    -0.451 OA
BRANCH   3   4
ATOM      4  C   UNL     1      -0.179 -15.214 -23.113  0.00  0.00    +0.189 C 
BRANCH   4   5
ATOM      5  C   UNL     1       1.318 -15.459 -23.093  0.00  0.00    +0.346 C 
ATOM      6  O   UNL     1       2.169 -14.576 -23.180  0.00  0.00    -0.247 OA
BRANCH   5   7
ATOM      7  O   UNL     1       1.600 -16.784 -22.957  0.00  0.00    -0.451 OA
BRANCH   7   8
ATOM      8  C   UNL     1       3.001 -17.071 -22.946  0.00  0.00    +0.189 C 
BRANCH   8   9
ATOM      9  C   UNL     1       3.625 -17.069 -24.332  0.00  0.00    +0.343 C 
ATOM     10  O   UNL     1       3.050 -16.941 -25.400  0.00  0.00    -0.247 OA
ATOM     11  O   UNL     1       4.961 -17.266 -24.293  0.00  0.00    -0.478 OA
ENDBRANCH   8   9
ENDBRANCH   7   8
ENDBRANCH   5   7
ENDBRANCH   4   5
ENDBRANCH   3   4
ENDBRANCH   1   3
BRANCH   1  12
ATOM     12  C   UNL     1       0.008 -11.631 -22.456  0.00  0.00    +0.189 C 
BRANCH  12  13
ATOM     13  O   UNL     1      -0.469 -10.700 -21.486  0.00  0.00    -0.451 OA
BRANCH  13  14
ATOM     14  C   UNL     1      -1.774 -10.351 -21.659  0.00  0.00    +0.346 C 
ATOM     15  O   UNL     1      -2.520 -10.828 -22.506  0.00  0.00    -0.247 OA
BRANCH  14  16
ATOM     16  C   UNL     1      -2.177  -9.295 -20.642  0.00  0.00    +0.189 C 
BRANCH  16  17
ATOM     17  O   UNL     1      -3.233  -8.446 -21.104  0.00  0.00    -0.452 OA
BRANCH  17  18
ATOM     18  C   UNL     1      -2.825  -7.472 -21.968  0.00  0.00    +0.333 C 
ATOM     19  O   UNL     1      -1.666  -7.293 -22.324  0.00  0.00    -0.248 OA
BRANCH  18  20
ATOM     20  C   UNL     1      -4.005  -6.594 -22.375  0.00  0.00    +0.141 C 
BRANCH  20  21
ATOM     21  O   UNL     1      -3.681  -5.536 -23.266  0.00  0.00    -0.384 OA
ATOM     22  H   UNL     1      -3.060  -4.929 -22.834  0.00  0.00    +0.000 HD
ENDBRANCH  20  21
ENDBRANCH  18  20
ENDBRANCH  17  18
ENDBRANCH  16  17
ENDBRANCH  14  16
ENDBRANCH  13  14
ENDBRANCH  12  13
ENDBRANCH   1  12
TORSDOF 14
