REMARK  Name = files/pga_7_unit.pdb
REMARK  20 active torsions:
REMARK  status: ('A' for Active; 'I' for Inactive)
REMARK    1  A    between atoms: C_1  and  C_3
REMARK    2  A    between atoms: C_1  and  O_18
REMARK    3  A    between atoms: C_3  and  O_4
REMARK    4  A    between atoms: O_4  and  C_5
REMARK    5  A    between atoms: C_5  and  C_7
REMARK    6  A    between atoms: C_7  and  O_8
REMARK    7  A    between atoms: O_8  and  C_9
REMARK    8  A    between atoms: C_9  and  C_11
REMARK    9  A    between atoms: C_11  and  O_12
REMARK   10  A    between atoms: O_12  and  C_13
REMARK   11  A    between atoms: C_13  and  C_15
REMARK   12  A    between atoms: C_15  and  O_16
REMARK   13  A    between atoms: O_18  and  C_19
REMARK   14  A    between atoms: C_19  and  C_20
REMARK   15  A    between atoms: C_20  and  O_22
REMARK   16  A    between atoms: O_22  and  C_23
REMARK   17  A    between atoms: C_23  and  C_24
REMARK   18  A    between atoms: C_24  and  O_26
REMARK   19  A    between atoms: O_26  and  C_27
REMARK   20  A    between atoms: C_27  and  C_28
REMARK                            x       y       z     vdW  Elec       q    Type
REMARK                         _______ _______ _______ _____ _____    ______ ____
ROOT
ATOM      1  C   UNL     1      -2.388 -11.888 -23.679  0.00  0.00    +0.346 C 
ATOM      2  O   UNL     1      -3.073 -12.891 -23.819  0.00  0.00    -0.247 OA
ENDROOT
BRANCH   1   3
ATOM      3  O   UNL     1      -1.161 -11.860 -23.087  0.00  0.00    -0.451 OA
BRANCH   3   4
ATOM      4  C   UNL     1      -0.700 -13.132 -22.621  0.00  0.00    +0.189 C 
BRANCH   4   5
ATOM      5  C   UNL     1      -0.068 -13.985 -23.716  0.00  0.00    +0.346 C 
ATOM      6  O   UNL     1       0.045 -13.662 -24.892  0.00  0.00    -0.247 OA
BRANCH   5   7
ATOM      7  O   UNL     1       0.418 -15.146 -23.181  0.00  0.00    -0.451 OA
BRANCH   7   8
ATOM      8  C   UNL     1       0.995 -16.050 -24.130  0.00  0.00    +0.189 C 
BRANCH   8   9
ATOM      9  C   UNL     1      -0.057 -16.805 -24.931  0.00  0.00    +0.346 C 
ATOM     10  O   UNL     1      -1.265 -16.718 -24.754  0.00  0.00    -0.247 OA
BRANCH   9  11
ATOM     11  O   UNL     1       0.529 -17.597 -25.869  0.00  0.00    -0.451 OA
BRANCH  11  12
ATOM     12  C   UNL     1      -0.405 -18.323 -26.678  0.00  0.00    +0.189 C 
BRANCH  12  13
ATOM     13  C   UNL     1      -1.023 -19.527 -25.983  0.00  0.00    +0.343 C 
ATOM     14  O   UNL     1      -0.729 -19.980 -24.889  0.00  0.00    -0.247 OA
ATOM     15  O   UNL     1      -1.961 -20.128 -26.747  0.00  0.00    -0.478 OA
ENDBRANCH  12  13
ENDBRANCH  11  12
ENDBRANCH   9  11
ENDBRANCH   8   9
ENDBRANCH   7   8
ENDBRANCH   5   7
ENDBRANCH   4   5
ENDBRANCH   3   4
ENDBRANCH   1   3
BRANCH   1  16
ATOM     16  C   UNL     1      -2.770 -10.517 -24.229  0.00  0.00    +0.189 C 
BRANCH  16  17
ATOM     17  O   UNL     1      -2.225  -9.400 -23.524  0.00  0.00    -0.451 OA
BRANCH  17  18
ATOM     18  C   UNL     1      -2.878  -9.087 -22.368  0.00  0.00    +0.346 C 
ATOM     19  O   UNL     1      -3.864  -9.676 -21.945  0.00  0.00    -0.247 OA
BRANCH  18  20
ATOM     20  C   UNL     1      -2.281  -7.843 -21.725  0.00  0.00    +0.189 C 
BRANCH  20  21
ATOM     21  O   UNL     1      -0.877  -7.683 -21.941  0.00  0.00    -0.451 OA
BRANCH  21  22
ATOM     22  C   UNL     1      -0.099  -8.448 -21.126  0.00  0.00    +0.346 C 
ATOM     23  O   UNL     1      -0.524  -9.250 -20.304  0.00  0.00    -0.247 OA
BRANCH  22  24
ATOM     24  C   UNL     1       1.375  -8.191 -21.398  0.00  0.00    +0.189 C 
BRANCH  24  25
ATOM     25  O   UNL     1       2.187  -8.382 -20.236  0.00  0.00    -0.452 OA
BRANCH  25  26
ATOM     26  C   UNL     1       2.129  -7.345 -19.349  0.00  0.00    +0.333 C 
ATOM     27  O   UNL     1       1.487  -6.316 -19.523  0.00  0.00    -0.248 OA
BRANCH  26  28
ATOM     28  C   UNL     1       3.027  -7.620 -18.148  0.00  0.00    +0.141 C 
BRANCH  28  29
ATOM     29  O   UNL     1       3.060  -6.575 -17.186  0.00  0.00    -0.384 OA
ATOM     30  H   UNL     1       3.425  -5.773 -17.592  0.00  0.00    +0.000 HD
ENDBRANCH  28  29
ENDBRANCH  26  28
ENDBRANCH  25  26
ENDBRANCH  24  25
ENDBRANCH  22  24
ENDBRANCH  21  22
ENDBRANCH  20  21
ENDBRANCH  18  20
ENDBRANCH  17  18
ENDBRANCH  16  17
ENDBRANCH   1  16
TORSDOF 20
