REMARK  Name = files/pga_9_unit.pdb
REMARK  26 active torsions:
REMARK  status: ('A' for Active; 'I' for Inactive)
REMARK    1  A    between atoms: C_1  and  C_3
REMARK    2  A    between atoms: C_1  and  O_22
REMARK    3  A    between atoms: C_3  and  O_4
REMARK    4  A    between atoms: O_4  and  C_5
REMARK    5  A    between atoms: C_5  and  C_7
REMARK    6  A    between atoms: C_7  and  O_8
REMARK    7  A    between atoms: O_8  and  C_9
REMARK    8  A    between atoms: C_9  and  C_11
REMARK    9  A    between atoms: C_11  and  O_12
REMARK   10  A    between atoms: O_12  and  C_13
REMARK   11  A    between atoms: C_13  and  C_15
REMARK   12  A    between atoms: C_15  and  O_16
REMARK   13  A    between atoms: O_16  and  C_17
REMARK   14  A    between atoms: C_17  and  C_19
REMARK   15  A    between atoms: C_19  and  O_20
REMARK   16  A    between atoms: O_22  and  C_23
REMARK   17  A    between atoms: C_23  and  C_24
REMARK   18  A    between atoms: C_24  and  O_26
REMARK   19  A    between atoms: O_26  and  C_27
REMARK   20  A    between atoms: C_27  and  C_28
REMARK   21  A    between atoms: C_28  and  O_30
REMARK   22  A    between atoms: O_30  and  C_31
REMARK   23  A    between atoms: C_31  and  C_32
REMARK   24  A    between atoms: C_32  and  O_34
REMARK   25  A    between atoms: O_34  and  C_35
REMARK   26  A    between atoms: C_35  and  C_36
REMARK                            x       y       z     vdW  Elec       q    Type
REMARK                         _______ _______ _______ _____ _____    ______ ____
ROOT
ATOM      1  C   UNL     1      -0.005 -12.508 -23.465  0.00  0.00    +0.346 C 
ATOM      2  O   UNL     1       0.448 -11.650 -24.213  0.00  0.00    -0.247 OA
ENDROOT
BRANCH   1   3
ATOM      3  O   UNL     1      -1.233 -13.084 -23.604  0.00  0.00    -0.451 OA
BRANCH   3   4
ATOM      4  C   UNL     1      -2.148 -12.376 -24.449  0.00  0.00    +0.189 C 
BRANCH   4   5
ATOM      5  C   UNL     1      -2.980 -11.463 -23.567  0.00  0.00    +0.346 C 
ATOM      6  O   UNL     1      -2.828 -11.318 -22.361  0.00  0.00    -0.247 OA
BRANCH   5   7
ATOM      7  O   UNL     1      -3.986 -10.901 -24.289  0.00  0.00    -0.451 OA
BRANCH   7   8
ATOM      8  C   UNL     1      -4.999 -10.316 -23.481  0.00  0.00    +0.189 C 
BRANCH   8   9
ATOM      9  C   UNL     1      -4.696  -9.031 -22.720  0.00  0.00    +0.346 C 
ATOM     10  O   UNL     1      -5.297  -8.678 -21.712  0.00  0.00    -0.247 OA
BRANCH   9  11
ATOM     11  O   UNL     1      -3.819  -8.244 -23.412  0.00  0.00    -0.451 OA
BRANCH  11  12
ATOM     12  C   UNL     1      -3.951  -6.852 -23.091  0.00  0.00    +0.189 C 
BRANCH  12  13
ATOM     13  C   UNL     1      -5.286  -6.328 -23.609  0.00  0.00    +0.346 C 
ATOM     14  O   UNL     1      -6.101  -6.996 -24.239  0.00  0.00    -0.247 OA
BRANCH  13  15
ATOM     15  O   UNL     1      -5.462  -5.019 -23.274  0.00  0.00    -0.451 OA
BRANCH  15  16
ATOM     16  C   UNL     1      -6.716  -4.491 -23.710  0.00  0.00    +0.189 C 
BRANCH  16  17
ATOM     17  C   UNL     1      -6.792  -4.253 -25.212  0.00  0.00    +0.343 C 
ATOM     18  O   UNL     1      -5.882  -4.338 -26.021  0.00  0.00    -0.247 OA
ATOM     19  O   UNL     1      -8.026  -3.873 -25.607  0.00  0.00    -0.478 OA
ENDBRANCH  16  17
ENDBRANCH  15  16
ENDBRANCH  13  15
ENDBRANCH  12  13
ENDBRANCH  11  12
ENDBRANCH   9  11
ENDBRANCH   8   9
ENDBRANCH   7   8
ENDBRANCH   5   7
ENDBRANCH   4   5
ENDBRANCH   3   4
ENDBRANCH   1   3
BRANCH   1  20
ATOM     20  C   UNL     1       0.692 -13.084 -22.244  0.00  0.00    +0.189 C 
BRANCH  20  21
ATOM     21  O   UNL     1       2.110 -12.913 -22.297  0.00  0.00    -0.451 OA
BRANCH  21  22
ATOM     22  C   UNL     1       2.553 -11.676 -21.935  0.00  0.00    +0.346 C 
ATOM     23  O   UNL     1       1.839 -10.751 -21.570  0.00  0.00    -0.247 OA
BRANCH  22  24
ATOM     24  C   UNL     1       4.058 -11.570 -22.140  0.00  0.00    +0.189 C 
BRANCH  24  25
ATOM     25  O   UNL     1       4.779 -12.785 -21.930  0.00  0.00    -0.451 OA
BRANCH  25  26
ATOM     26  C   UNL     1       4.938 -13.127 -20.620  0.00  0.00    +0.346 C 
ATOM     27  O   UNL     1       4.586 -12.443 -19.671  0.00  0.00    -0.247 OA
BRANCH  26  28
ATOM     28  C   UNL     1       5.702 -14.441 -20.491  0.00  0.00    +0.189 C 
BRANCH  28  29
ATOM     29  O   UNL     1       5.525 -15.358 -21.571  0.00  0.00    -0.451 OA
BRANCH  29  30
ATOM     30  C   UNL     1       4.272 -15.889 -21.649  0.00  0.00    +0.346 C 
ATOM     31  O   UNL     1       3.343 -15.600 -20.906  0.00  0.00    -0.247 OA
BRANCH  30  32
ATOM     32  C   UNL     1       4.183 -16.863 -22.812  0.00  0.00    +0.189 C 
BRANCH  32  33
ATOM     33  O   UNL     1       3.131 -17.816 -22.641  0.00  0.00    -0.452 OA
BRANCH  33  34
ATOM     34  C   UNL     1       3.422 -18.800 -21.742  0.00  0.00    +0.333 C 
ATOM     35  O   UNL     1       4.494 -18.928 -21.166  0.00  0.00    -0.248 OA
BRANCH  34  36
ATOM     36  C   UNL     1       2.241 -19.756 -21.606  0.00  0.00    +0.141 C 
BRANCH  36  37
ATOM     37  O   UNL     1       2.468 -20.838 -20.716  0.00  0.00    -0.384 OA
ATOM     38  H   UNL     1       3.198 -21.383 -21.048  0.00  0.00    +0.000 HD
ENDBRANCH  36  37
ENDBRANCH  34  36
ENDBRANCH  33  34
ENDBRANCH  32  33
ENDBRANCH  30  32
ENDBRANCH  29  30
ENDBRANCH  28  29
ENDBRANCH  26  28
ENDBRANCH  25  26
ENDBRANCH  24  25
ENDBRANCH  22  24
ENDBRANCH  21  22
ENDBRANCH  20  21
ENDBRANCH   1  20
TORSDOF 26
