REMARK  Name = files/pga_10_unit.pdb
REMARK  29 active torsions:
REMARK  status: ('A' for Active; 'I' for Inactive)
REMARK    1  A    between atoms: O_1  and  C_2
REMARK    2  A    between atoms: O_1  and  C_23
REMARK    3  A    between atoms: C_2  and  C_4
REMARK    4  A    between atoms: C_4  and  O_5
REMARK    5  A    between atoms: O_5  and  C_6
REMARK    6  A    between atoms: C_6  and  C_8
REMARK    7  A    between atoms: C_8  and  O_9
REMARK    8  A    between atoms: O_9  and  C_10
REMARK    9  A    between atoms: C_10  and  C_12
REMARK   10  A    between atoms: C_12  and  O_13
REMARK   11  A    between atoms: O_13  and  C_14
REMARK   12  A    between atoms: C_14  and  C_16
REMARK   13  A    between atoms: C_16  and  O_17
REMARK   14  A    between atoms: O_17  and  C_18
REMARK   15  A    between atoms: C_18  and  C_20
REMARK   16  A    between atoms: C_20  and  O_21
REMARK   17  A    between atoms: C_23  and  C_24
REMARK   18  A    between atoms: C_24  and  O_26
REMARK   19  A    between atoms: O_26  and  C_27
REMARK   20  A    between atoms: C_27  and  C_28
REMARK   21  A    between atoms: C_28  and  O_30
REMARK   22  A    between atoms: O_30  and  C_31
REMARK   23  A    between atoms: C_31  and  C_32
REMARK   24  A    between atoms: C_32  and  O_34
REMARK   25  A    between atoms: O_34  and  C_35
REMARK   26  A    between atoms: C_35  and  C_36
REMARK   27  A    between atoms: C_36  and  O_38
REMARK   28  A    between atoms: O_38  and  C_39
REMARK   29  A    between atoms: C_39  and  C_40
REMARK                            x       y       z     vdW  Elec       q    Type
REMARK                         _______ _______ _______ _____ _____    ______ ____
ROOT
ATOM      1  O   UNL     1       1.476 -11.753 -23.517  0.00  0.00    -0.451 OA
ENDROOT
BRANCH   1   2
ATOM      2  C   UNL     1       2.056 -12.983 -23.616  0.00  0.00    +0.346 C 
ATOM      3  O   UNL     1       1.453 -14.049 -23.589  0.00  0.00    -0.247 OA
BRANCH   2   4
ATOM      4  C   UNL     1       3.573 -12.858 -23.704  0.00  0.00    +0.189 C 
BRANCH   4   5
ATOM      5  O   UNL     1       4.078 -11.641 -24.256  0.00  0.00    -0.451 OA
BRANCH   5   6
ATOM      6  C   UNL     1       3.719 -11.418 -25.552  0.00  0.00    +0.346 C 
ATOM      7  O   UNL     1       3.048 -12.186 -26.230  0.00  0.00    -0.247 OA
BRANCH   6   8
ATOM      8  C   UNL     1       4.350 -10.141 -26.083  0.00  0.00    +0.189 C 
BRANCH   8   9
ATOM      9  O   UNL     1       4.607  -9.151 -25.084  0.00  0.00    -0.451 OA
BRANCH   9  10
ATOM     10  C   UNL     1       3.533  -8.371 -24.767  0.00  0.00    +0.346 C 
ATOM     11  O   UNL     1       2.425  -8.477 -25.276  0.00  0.00    -0.247 OA
BRANCH  10  12
ATOM     12  C   UNL     1       3.935  -7.334 -23.725  0.00  0.00    +0.189 C 
BRANCH  12  13
ATOM     13  O   UNL     1       3.120  -6.159 -23.777  0.00  0.00    -0.451 OA
BRANCH  13  14
ATOM     14  C   UNL     1       1.904  -6.267 -23.171  0.00  0.00    +0.346 C 
ATOM     15  O   UNL     1       1.511  -7.258 -22.564  0.00  0.00    -0.247 OA
BRANCH  14  16
ATOM     16  C   UNL     1       1.059  -5.026 -23.427  0.00  0.00    +0.189 C 
BRANCH  16  17
ATOM     17  O   UNL     1       1.797  -3.815 -23.602  0.00  0.00    -0.452 OA
BRANCH  17  18
ATOM     18  C   UNL     1       2.271  -3.266 -22.450  0.00  0.00    +0.333 C 
ATOM     19  O   UNL     1       2.081  -3.716 -21.327  0.00  0.00    -0.248 OA
BRANCH  18  20
ATOM     20  C   UNL     1       3.040  -1.985 -22.758  0.00  0.00    +0.141 C 
BRANCH  20  21
ATOM     21  O   UNL     1       3.566  -1.323 -21.618  0.00  0.00    -0.384 OA
ATOM     22  H   UNL     1       2.838  -1.044 -21.042  0.00  0.00    +0.000 HD
ENDBRANCH  20  21
ENDBRANCH  18  20
ENDBRANCH  17  18
ENDBRANCH  16  17
ENDBRANCH  14  16
ENDBRANCH  13  14
ENDBRANCH  12  13
ENDBRANCH  10  12
ENDBRANCH   9  10
ENDBRANCH   8   9
ENDBRANCH   6   8
ENDBRANCH   5   6
ENDBRANCH   4   5
ENDBRANCH   2   4
ENDBRANCH   1   2
BRANCH   1  23
ATOM     23  C   UNL     1       0.056 -11.786 -23.374  0.00  0.00    +0.189 C 
BRANCH  23  24
ATOM     24  C   UNL     1      -0.380 -12.222 -21.983  0.00  0.00    +0.346 C 
ATOM     25  O   UNL     1       0.373 -12.500 -21.059  0.00  0.00    -0.247 OA
BRANCH  24  26
ATOM     26  O   UNL     1      -1.739 -12.305 -21.935  0.00  0.00    -0.451 OA
BRANCH  26  27
ATOM     27  C   UNL     1      -2.247 -13.095 -20.855  0.00  0.00    +0.189 C 
BRANCH  27  28
ATOM     28  C   UNL     1      -2.269 -14.579 -21.199  0.00  0.00    +0.346 C 
ATOM     29  O   UNL     1      -2.252 -15.480 -20.371  0.00  0.00    -0.247 OA
BRANCH  28  30
ATOM     30  O   UNL     1      -2.376 -14.763 -22.547  0.00  0.00    -0.451 OA
BRANCH  30  31
ATOM     31  C   UNL     1      -2.525 -16.123 -22.961  0.00  0.00    +0.189 C 
BRANCH  31  32
ATOM     32  C   UNL     1      -3.949 -16.636 -22.789  0.00  0.00    +0.346 C 
ATOM     33  O   UNL     1      -4.887 -15.992 -22.336  0.00  0.00    -0.247 OA
BRANCH  32  34
ATOM     34  O   UNL     1      -4.042 -17.914 -23.263  0.00  0.00    -0.451 OA
BRANCH  34  35
ATOM     35  C   UNL     1      -5.323 -18.523 -23.068  0.00  0.00    +0.189 C 
BRANCH  35  36
ATOM     36  C   UNL     1      -5.550 -18.953 -21.625  0.00  0.00    +0.346 C 
ATOM     37  O   UNL     1      -4.714 -18.894 -20.731  0.00  0.00    -0.247 OA
BRANCH  36  38
ATOM     38  O   UNL     1      -6.821 -19.423 -21.467  0.00  0.00    -0.451 OA
BRANCH  38  39
ATOM     39  C   UNL     1      -7.128 -19.814 -20.128  0.00  0.00    +0.189 C 
BRANCH  39  40
ATOM     40  C   UNL     1      -6.521 -21.147 -19.717  0.00  0.00    +0.343 C 
ATOM     41  O   UNL     1      -5.931 -21.942 -20.431  0.00  0.00    -0.247 OA
ATOM     42  O   UNL     1      -6.748 -21.430 -18.416  0.00  0.00    -0.478 OA
ENDBRANCH  39  40
ENDBRANCH  38  39
ENDBRANCH  36  38
ENDBRANCH  35  36
ENDBRANCH  34  35
ENDBRANCH  32  34
ENDBRANCH  31  32
ENDBRANCH  30  31
ENDBRANCH  28  30
ENDBRANCH  27  28
ENDBRANCH  26  27
ENDBRANCH  24  26
ENDBRANCH  23  24
ENDBRANCH   1  23
TORSDOF 29
