REMARK  Name = files/phb_1_unit.pdb
REMARK  3 active torsions:
REMARK  status: ('A' for Active; 'I' for Inactive)
REMARK    1  A    between atoms: C_2  and  O_3
REMARK    2  A    between atoms: C_2  and  C_5
REMARK    3  A    between atoms: C_5  and  C_6
REMARK                            x       y       z     vdW  Elec       q    Type
REMARK                         _______ _______ _______ _____ _____    ______ ____
ROOT
ATOM      1  C   UNL     1       0.608 -11.289 -20.955  0.00  0.00    -0.038 C 
ATOM      2  C   UNL     1       0.097 -12.608 -21.525  0.00  0.00    +0.062 C 
ENDROOT
BRANCH   2   3
ATOM      3  O   UNL     1      -1.312 -12.703 -21.335  0.00  0.00    -0.392 OA
ATOM      4  H   UNL     1      -1.753 -11.992 -21.827  0.00  0.00    +0.000 HD
ENDBRANCH   2   3
BRANCH   2   5
ATOM      5  C   UNL     1       0.471 -12.830 -22.990  0.00  0.00    +0.070 C 
BRANCH   5   6
ATOM      6  C   UNL     1      -0.125 -11.781 -23.889  0.00  0.00    +0.307 C 
ATOM      7  O   UNL     1      -1.187 -11.202 -23.722  0.00  0.00    -0.251 OA
ATOM      8  O   UNL     1       0.627 -11.541 -24.980  0.00  0.00    -0.481 OA
ENDBRANCH   5   6
ENDBRANCH   2   5
TORSDOF 3
