REMARK  Name = files/phb_11_unit.pdb
REMARK  43 active torsions:
REMARK  status: ('A' for Active; 'I' for Inactive)
REMARK    1  A    between atoms: C_1  and  C_2
REMARK    2  A    between atoms: C_1  and  C_36
REMARK    3  A    between atoms: C_2  and  O_4
REMARK    4  A    between atoms: O_4  and  C_5
REMARK    5  A    between atoms: C_5  and  C_7
REMARK    6  A    between atoms: C_7  and  C_8
REMARK    7  A    between atoms: C_8  and  O_10
REMARK    8  A    between atoms: O_10  and  C_11
REMARK    9  A    between atoms: C_11  and  C_13
REMARK   10  A    between atoms: C_13  and  C_14
REMARK   11  A    between atoms: C_14  and  O_16
REMARK   12  A    between atoms: O_16  and  C_17
REMARK   13  A    between atoms: C_17  and  C_19
REMARK   14  A    between atoms: C_19  and  C_20
REMARK   15  A    between atoms: C_20  and  O_22
REMARK   16  A    between atoms: O_22  and  C_23
REMARK   17  A    between atoms: C_23  and  C_25
REMARK   18  A    between atoms: C_25  and  C_26
REMARK   19  A    between atoms: C_26  and  O_28
REMARK   20  A    between atoms: O_28  and  C_29
REMARK   21  A    between atoms: C_29  and  C_31
REMARK   22  A    between atoms: C_31  and  C_32
REMARK   23  A    between atoms: C_32  and  O_34
REMARK   24  A    between atoms: C_36  and  O_38
REMARK   25  A    between atoms: O_38  and  C_39
REMARK   26  A    between atoms: C_39  and  C_41
REMARK   27  A    between atoms: C_41  and  C_42
REMARK   28  A    between atoms: C_42  and  O_44
REMARK   29  A    between atoms: O_44  and  C_45
REMARK   30  A    between atoms: C_45  and  C_47
REMARK   31  A    between atoms: C_47  and  C_48
REMARK   32  A    between atoms: C_48  and  O_50
REMARK   33  A    between atoms: O_50  and  C_51
REMARK   34  A    between atoms: C_51  and  C_53
REMARK   35  A    between atoms: C_53  and  C_54
REMARK   36  A    between atoms: C_54  and  O_56
REMARK   37  A    between atoms: O_56  and  C_57
REMARK   38  A    between atoms: C_57  and  C_59
REMARK   39  A    between atoms: C_59  and  C_60
REMARK   40  A    between atoms: C_60  and  O_62
REMARK   41  A    between atoms: O_62  and  C_63
REMARK   42  A    between atoms: C_63  and  C_65
REMARK   43  A    between atoms: C_65  and  C_66
REMARK                            x       y       z     vdW  Elec       q    Type
REMARK                         _______ _______ _______ _____ _____    ______ ____
ROOT
ATOM      1  C   UNL     1       2.792 -15.248 -21.628  0.00  0.00    +0.082 C 
ENDROOT
BRANCH   1   2
ATOM      2  C   UNL     1       3.409 -16.767 -21.373  0.00  0.00    +0.311 C 
ATOM      3  O   UNL     1       4.389 -17.148 -22.028  0.00  0.00    -0.251 OA
BRANCH   2   4
ATOM      4  O   UNL     1       2.690 -17.611 -20.557  0.00  0.00    -0.461 OA
BRANCH   4   5
ATOM      5  C   UNL     1       2.749 -19.114 -20.591  0.00  0.00    +0.110 C 
ATOM      6  C   UNL     1       3.178 -19.875 -19.316  0.00  0.00    -0.027 C 
BRANCH   5   7
ATOM      7  C   UNL     1       3.119 -19.902 -21.873  0.00  0.00    +0.082 C 
BRANCH   7   8
ATOM      8  C   UNL     1       4.262 -20.935 -21.890  0.00  0.00    +0.311 C 
ATOM      9  O   UNL     1       4.055 -22.077 -22.301  0.00  0.00    -0.251 OA
BRANCH   8  10
ATOM     10  O   UNL     1       5.506 -20.519 -21.495  0.00  0.00    -0.461 OA
BRANCH  10  11
ATOM     11  C   UNL     1       6.589 -21.532 -21.512  0.00  0.00    +0.110 C 
ATOM     12  C   UNL     1       6.707 -22.172 -20.123  0.00  0.00    -0.027 C 
BRANCH  11  13
ATOM     13  C   UNL     1       7.935 -20.886 -21.925  0.00  0.00    +0.082 C 
BRANCH  13  14
ATOM     14  C   UNL     1       9.134 -21.843 -22.006  0.00  0.00    +0.311 C 
ATOM     15  O   UNL     1       9.791 -22.031 -20.979  0.00  0.00    -0.251 OA
BRANCH  14  16
ATOM     16  O   UNL     1       9.524 -22.470 -23.128  0.00  0.00    -0.461 OA
BRANCH  16  17
ATOM     17  C   UNL     1       9.124 -22.613 -24.562  0.00  0.00    +0.110 C 
ATOM     18  C   UNL     1      10.188 -21.936 -25.425  0.00  0.00    -0.027 C 
BRANCH  17  19
ATOM     19  C   UNL     1       7.676 -22.245 -24.691  0.00  0.00    +0.082 C 
BRANCH  19  20
ATOM     20  C   UNL     1       6.771 -22.255 -25.897  0.00  0.00    +0.311 C 
ATOM     21  O   UNL     1       7.055 -22.053 -27.059  0.00  0.00    -0.251 OA
BRANCH  20  22
ATOM     22  O   UNL     1       5.528 -22.275 -25.327  0.00  0.00    -0.461 OA
BRANCH  22  23
ATOM     23  C   UNL     1       4.318 -21.741 -25.895  0.00  0.00    +0.110 C 
ATOM     24  C   UNL     1       3.689 -22.724 -26.864  0.00  0.00    -0.027 C 
BRANCH  23  25
ATOM     25  C   UNL     1       4.477 -20.311 -26.406  0.00  0.00    +0.082 C 
BRANCH  25  26
ATOM     26  C   UNL     1       3.126 -19.633 -26.441  0.00  0.00    +0.311 C 
ATOM     27  O   UNL     1       2.265 -19.758 -25.578  0.00  0.00    -0.251 OA
BRANCH  26  28
ATOM     28  O   UNL     1       2.997 -18.872 -27.558  0.00  0.00    -0.461 OA
BRANCH  28  29
ATOM     29  C   UNL     1       1.700 -18.289 -27.796  0.00  0.00    +0.110 C 
ATOM     30  C   UNL     1       1.597 -17.974 -29.286  0.00  0.00    -0.027 C 
BRANCH  29  31
ATOM     31  C   UNL     1       1.391 -17.082 -26.906  0.00  0.00    +0.081 C 
BRANCH  31  32
ATOM     32  C   UNL     1       2.342 -15.930 -27.049  0.00  0.00    +0.308 C 
ATOM     33  O   UNL     1       3.437 -15.921 -27.589  0.00  0.00    -0.251 OA
ATOM     34  O   UNL     1       1.871 -14.799 -26.452  0.00  0.00    -0.481 OA
ENDBRANCH  31  32
ENDBRANCH  29  31
ENDBRANCH  28  29
ENDBRANCH  26  28
ENDBRANCH  25  26
ENDBRANCH  23  25
ENDBRANCH  22  23
ENDBRANCH  20  22
ENDBRANCH  19  20
ENDBRANCH  17  19
ENDBRANCH  16  17
ENDBRANCH  14  16
ENDBRANCH  13  14
ENDBRANCH  11  13
ENDBRANCH  10  11
ENDBRANCH   8  10
ENDBRANCH   7   8
ENDBRANCH   5   7
ENDBRANCH   4   5
ENDBRANCH   2   4
ENDBRANCH   1   2
BRANCH   1  35
ATOM     35  C   UNL     1       2.178 -14.292 -20.513  0.00  0.00    +0.110 C 
ATOM     36  C   UNL     1       3.301 -13.723 -19.621  0.00  0.00    -0.027 C 
BRANCH  35  37
ATOM     37  O   UNL     1       1.125 -13.151 -20.851  0.00  0.00    -0.461 OA
BRANCH  37  38
ATOM     38  C   UNL     1       1.086 -12.324 -21.941  0.00  0.00    +0.311 C 
ATOM     39  O   UNL     1       1.925 -12.460 -22.837  0.00  0.00    -0.251 OA
BRANCH  38  40
ATOM     40  C   UNL     1      -0.087 -11.203 -22.177  0.00  0.00    +0.082 C 
BRANCH  40  41
ATOM     41  C   UNL     1      -1.457 -10.714 -21.548  0.00  0.00    +0.110 C 
ATOM     42  C   UNL     1      -2.235 -11.798 -20.788  0.00  0.00    -0.027 C 
BRANCH  41  43
ATOM     43  O   UNL     1      -1.766  -9.333 -20.969  0.00  0.00    -0.461 OA
BRANCH  43  44
ATOM     44  C   UNL     1      -1.237  -8.073 -21.234  0.00  0.00    +0.311 C 
ATOM     45  O   UNL     1      -0.039  -7.865 -21.344  0.00  0.00    -0.251 OA
BRANCH  44  46
ATOM     46  C   UNL     1      -2.396  -6.977 -21.397  0.00  0.00    +0.082 C 
BRANCH  46  47
ATOM     47  C   UNL     1      -2.210  -5.401 -21.467  0.00  0.00    +0.110 C 
ATOM     48  C   UNL     1      -1.270  -4.876 -22.580  0.00  0.00    -0.027 C 
BRANCH  47  49
ATOM     49  O   UNL     1      -3.587  -4.646 -21.283  0.00  0.00    -0.461 OA
BRANCH  49  50
ATOM     50  C   UNL     1      -4.547  -4.332 -22.212  0.00  0.00    +0.311 C 
ATOM     51  O   UNL     1      -4.452  -4.563 -23.410  0.00  0.00    -0.251 OA
BRANCH  50  52
ATOM     52  C   UNL     1      -5.990  -3.828 -21.603  0.00  0.00    +0.082 C 
BRANCH  52  53
ATOM     53  C   UNL     1      -6.290  -2.634 -20.592  0.00  0.00    +0.110 C 
ATOM     54  C   UNL     1      -5.006  -2.264 -19.857  0.00  0.00    -0.027 C 
BRANCH  53  55
ATOM     55  O   UNL     1      -7.023  -1.381 -21.102  0.00  0.00    -0.461 OA
BRANCH  55  56
ATOM     56  C   UNL     1      -8.343  -1.115 -20.694  0.00  0.00    +0.311 C 
ATOM     57  O   UNL     1      -9.019  -1.958 -20.106  0.00  0.00    -0.251 OA
BRANCH  56  58
ATOM     58  C   UNL     1      -8.916   0.369 -20.895  0.00  0.00    +0.082 C 
BRANCH  58  59
ATOM     59  C   UNL     1      -9.848   0.823 -22.084  0.00  0.00    +0.110 C 
ATOM     60  C   UNL     1      -9.817  -0.251 -23.194  0.00  0.00    -0.027 C 
BRANCH  59  61
ATOM     61  O   UNL     1     -11.230   1.362 -21.645  0.00  0.00    -0.461 OA
BRANCH  61  62
ATOM     62  C   UNL     1     -11.398   2.749 -21.446  0.00  0.00    +0.310 C 
ATOM     63  O   UNL     1     -10.474   3.536 -21.652  0.00  0.00    -0.251 OA
BRANCH  62  64
ATOM     64  C   UNL     1     -12.828   3.322 -21.065  0.00  0.00    +0.071 C 
BRANCH  64  65
ATOM     65  C   UNL     1     -13.214   3.901 -19.656  0.00  0.00    +0.062 C 
ATOM     66  C   UNL     1     -12.669   5.258 -19.153  0.00  0.00    -0.038 C 
BRANCH  65  67
ATOM     67  O   UNL     1     -14.659   4.078 -19.670  0.00  0.00    -0.392 OA
ATOM     68  H   UNL     1     -14.895   4.760 -20.318  0.00  0.00    +0.000 HD
ENDBRANCH  65  67
ENDBRANCH  64  65
ENDBRANCH  62  64
ENDBRANCH  61  62
ENDBRANCH  59  61
ENDBRANCH  58  59
ENDBRANCH  56  58
ENDBRANCH  55  56
ENDBRANCH  53  55
ENDBRANCH  52  53
ENDBRANCH  50  52
ENDBRANCH  49  50
ENDBRANCH  47  49
ENDBRANCH  46  47
ENDBRANCH  44  46
ENDBRANCH  43  44
ENDBRANCH  41  43
ENDBRANCH  40  41
ENDBRANCH  38  40
ENDBRANCH  37  38
ENDBRANCH  35  37
ENDBRANCH   1  35
TORSDOF 43
