REMARK  Name = files/phb_7_unit.pdb
REMARK  27 active torsions:
REMARK  status: ('A' for Active; 'I' for Inactive)
REMARK    1  A    between atoms: C_1  and  C_2
REMARK    2  A    between atoms: C_1  and  C_24
REMARK    3  A    between atoms: C_2  and  O_4
REMARK    4  A    between atoms: O_4  and  C_5
REMARK    5  A    between atoms: C_5  and  C_7
REMARK    6  A    between atoms: C_7  and  C_8
REMARK    7  A    between atoms: C_8  and  O_10
REMARK    8  A    between atoms: O_10  and  C_11
REMARK    9  A    between atoms: C_11  and  C_13
REMARK   10  A    between atoms: C_13  and  C_14
REMARK   11  A    between atoms: C_14  and  O_16
REMARK   12  A    between atoms: O_16  and  C_17
REMARK   13  A    between atoms: C_17  and  C_19
REMARK   14  A    between atoms: C_19  and  C_20
REMARK   15  A    between atoms: C_20  and  O_22
REMARK   16  A    between atoms: C_24  and  O_26
REMARK   17  A    between atoms: O_26  and  C_27
REMARK   18  A    between atoms: C_27  and  C_29
REMARK   19  A    between atoms: C_29  and  C_30
REMARK   20  A    between atoms: C_30  and  O_32
REMARK   21  A    between atoms: O_32  and  C_33
REMARK   22  A    between atoms: C_33  and  C_35
REMARK   23  A    between atoms: C_35  and  C_36
REMARK   24  A    between atoms: C_36  and  O_38
REMARK   25  A    between atoms: O_38  and  C_39
REMARK   26  A    between atoms: C_39  and  C_41
REMARK   27  A    between atoms: C_41  and  C_42
REMARK                            x       y       z     vdW  Elec       q    Type
REMARK                         _______ _______ _______ _____ _____    ______ ____
ROOT
ATOM      1  C   UNL     1      -2.937 -11.445 -22.746  0.00  0.00    +0.082 C 
ENDROOT
BRANCH   1   2
ATOM      2  C   UNL     1      -3.801 -10.499 -21.828  0.00  0.00    +0.311 C 
ATOM      3  O   UNL     1      -3.264  -9.708 -21.059  0.00  0.00    -0.251 OA
BRANCH   2   4
ATOM      4  O   UNL     1      -5.145 -10.707 -21.821  0.00  0.00    -0.461 OA
BRANCH   4   5
ATOM      5  C   UNL     1      -6.062 -10.153 -20.784  0.00  0.00    +0.110 C 
ATOM      6  C   UNL     1      -6.495  -8.682 -20.853  0.00  0.00    -0.027 C 
BRANCH   5   7
ATOM      7  C   UNL     1      -5.867 -10.662 -19.341  0.00  0.00    +0.082 C 
BRANCH   7   8
ATOM      8  C   UNL     1      -4.890 -10.046 -18.349  0.00  0.00    +0.311 C 
ATOM      9  O   UNL     1      -4.648 -10.603 -17.281  0.00  0.00    -0.251 OA
BRANCH   8  10
ATOM     10  O   UNL     1      -4.371  -8.852 -18.704  0.00  0.00    -0.461 OA
BRANCH  10  11
ATOM     11  C   UNL     1      -3.226  -8.326 -17.948  0.00  0.00    +0.110 C 
ATOM     12  C   UNL     1      -3.686  -7.775 -16.599  0.00  0.00    -0.027 C 
BRANCH  11  13
ATOM     13  C   UNL     1      -2.630  -7.253 -18.857  0.00  0.00    +0.082 C 
BRANCH  13  14
ATOM     14  C   UNL     1      -1.360  -6.534 -18.426  0.00  0.00    +0.311 C 
ATOM     15  O   UNL     1      -0.784  -6.624 -17.354  0.00  0.00    -0.251 OA
BRANCH  14  16
ATOM     16  O   UNL     1      -1.002  -5.714 -19.458  0.00  0.00    -0.461 OA
BRANCH  16  17
ATOM     17  C   UNL     1       0.062  -4.747 -19.296  0.00  0.00    +0.110 C 
ATOM     18  C   UNL     1      -0.154  -3.691 -20.384  0.00  0.00    -0.027 C 
BRANCH  17  19
ATOM     19  C   UNL     1       1.456  -5.375 -19.339  0.00  0.00    +0.081 C 
BRANCH  19  20
ATOM     20  C   UNL     1       1.772  -6.127 -20.611  0.00  0.00    +0.308 C 
ATOM     21  O   UNL     1       1.233  -6.031 -21.686  0.00  0.00    -0.251 OA
ATOM     22  O   UNL     1       2.844  -6.944 -20.438  0.00  0.00    -0.481 OA
ENDBRANCH  19  20
ENDBRANCH  17  19
ENDBRANCH  16  17
ENDBRANCH  14  16
ENDBRANCH  13  14
ENDBRANCH  11  13
ENDBRANCH  10  11
ENDBRANCH   8  10
ENDBRANCH   7   8
ENDBRANCH   5   7
ENDBRANCH   4   5
ENDBRANCH   2   4
ENDBRANCH   1   2
BRANCH   1  23
ATOM     23  C   UNL     1      -3.378 -11.833 -24.185  0.00  0.00    +0.110 C 
ATOM     24  C   UNL     1      -3.678 -10.566 -25.000  0.00  0.00    -0.027 C 
BRANCH  23  25
ATOM     25  O   UNL     1      -2.553 -12.922 -24.954  0.00  0.00    -0.461 OA
BRANCH  25  26
ATOM     26  C   UNL     1      -1.195 -13.037 -25.235  0.00  0.00    +0.311 C 
ATOM     27  O   UNL     1      -0.389 -12.184 -24.880  0.00  0.00    -0.251 OA
BRANCH  26  28
ATOM     28  C   UNL     1      -0.747 -14.359 -26.121  0.00  0.00    +0.082 C 
BRANCH  28  29
ATOM     29  C   UNL     1       0.600 -15.132 -25.661  0.00  0.00    +0.110 C 
ATOM     30  C   UNL     1       0.327 -15.756 -24.289  0.00  0.00    -0.027 C 
BRANCH  29  31
ATOM     31  O   UNL     1       1.493 -16.062 -26.578  0.00  0.00    -0.461 OA
BRANCH  31  32
ATOM     32  C   UNL     1       1.233 -17.293 -27.118  0.00  0.00    +0.311 C 
ATOM     33  O   UNL     1       0.070 -17.711 -27.134  0.00  0.00    -0.251 OA
BRANCH  32  34
ATOM     34  C   UNL     1       2.361 -18.236 -27.851  0.00  0.00    +0.082 C 
BRANCH  34  35
ATOM     35  C   UNL     1       3.913 -18.450 -27.973  0.00  0.00    +0.110 C 
ATOM     36  C   UNL     1       4.801 -17.407 -28.666  0.00  0.00    -0.027 C 
BRANCH  35  37
ATOM     37  O   UNL     1       4.586 -18.992 -26.799  0.00  0.00    -0.461 OA
BRANCH  37  38
ATOM     38  C   UNL     1       4.528 -18.121 -25.787  0.00  0.00    +0.310 C 
ATOM     39  O   UNL     1       3.899 -17.072 -25.886  0.00  0.00    -0.251 OA
BRANCH  38  40
ATOM     40  C   UNL     1       5.239 -18.535 -24.540  0.00  0.00    +0.071 C 
BRANCH  40  41
ATOM     41  C   UNL     1       5.062 -17.383 -23.523  0.00  0.00    +0.062 C 
ATOM     42  C   UNL     1       5.704 -16.071 -23.985  0.00  0.00    -0.038 C 
BRANCH  41  43
ATOM     43  O   UNL     1       3.670 -17.175 -23.274  0.00  0.00    -0.392 OA
ATOM     44  H   UNL     1       3.230 -16.910 -24.097  0.00  0.00    +0.000 HD
ENDBRANCH  41  43
ENDBRANCH  40  41
ENDBRANCH  38  40
ENDBRANCH  37  38
ENDBRANCH  35  37
ENDBRANCH  34  35
ENDBRANCH  32  34
ENDBRANCH  31  32
ENDBRANCH  29  31
ENDBRANCH  28  29
ENDBRANCH  26  28
ENDBRANCH  25  26
ENDBRANCH  23  25
ENDBRANCH   1  23
TORSDOF 27
