REMARK  Name = files/phb_4_unit.pdb
REMARK  15 active torsions:
REMARK  status: ('A' for Active; 'I' for Inactive)
REMARK    1  A    between atoms: O_1  and  C_2
REMARK    2  A    between atoms: O_1  and  C_14
REMARK    3  A    between atoms: C_2  and  C_4
REMARK    4  A    between atoms: C_4  and  C_5
REMARK    5  A    between atoms: C_5  and  O_7
REMARK    6  A    between atoms: O_7  and  C_8
REMARK    7  A    between atoms: C_8  and  C_10
REMARK    8  A    between atoms: C_10  and  C_11
REMARK    9  A    between atoms: C_14  and  C_16
REMARK   10  A    between atoms: C_16  and  C_17
REMARK   11  A    between atoms: C_17  and  O_19
REMARK   12  A    between atoms: O_19  and  C_20
REMARK   13  A    between atoms: C_20  and  C_22
REMARK   14  A    between atoms: C_22  and  C_23
REMARK   15  A    between atoms: C_23  and  O_25
REMARK                            x       y       z     vdW  Elec       q    Type
REMARK                         _______ _______ _______ _____ _____    ______ ____
ROOT
ATOM      1  O   UNL     1      -0.298 -10.815 -20.927  0.00  0.00    -0.461 OA
ENDROOT
BRANCH   1   2
ATOM      2  C   UNL     1       0.552 -10.176 -19.938  0.00  0.00    +0.110 C 
ATOM      3  C   UNL     1       0.439  -8.661 -20.104  0.00  0.00    -0.027 C 
BRANCH   2   4
ATOM      4  C   UNL     1       2.006 -10.663 -19.966  0.00  0.00    +0.082 C 
BRANCH   4   5
ATOM      5  C   UNL     1       2.722 -10.425 -21.271  0.00  0.00    +0.311 C 
ATOM      6  O   UNL     1       3.195  -9.354 -21.621  0.00  0.00    -0.251 OA
BRANCH   5   7
ATOM      7  O   UNL     1       2.751 -11.572 -21.995  0.00  0.00    -0.461 OA
BRANCH   7   8
ATOM      8  C   UNL     1       3.280 -11.522 -23.334  0.00  0.00    +0.110 C 
ATOM      9  C   UNL     1       2.824 -12.820 -23.998  0.00  0.00    -0.027 C 
BRANCH   8  10
ATOM     10  C   UNL     1       4.796 -11.345 -23.409  0.00  0.00    +0.081 C 
BRANCH  10  11
ATOM     11  C   UNL     1       5.560 -12.462 -22.764  0.00  0.00    +0.308 C 
ATOM     12  O   UNL     1       6.175 -13.338 -23.350  0.00  0.00    -0.251 OA
ATOM     13  O   UNL     1       5.533 -12.411 -21.422  0.00  0.00    -0.481 OA
ENDBRANCH  10  11
ENDBRANCH   8  10
ENDBRANCH   7   8
ENDBRANCH   5   7
ENDBRANCH   4   5
ENDBRANCH   2   4
ENDBRANCH   1   2
BRANCH   1  14
ATOM     14  C   UNL     1      -1.603 -10.982 -20.552  0.00  0.00    +0.311 C 
ATOM     15  O   UNL     1      -2.000 -10.767 -19.407  0.00  0.00    -0.251 OA
BRANCH  14  16
ATOM     16  C   UNL     1      -2.561 -11.514 -21.610  0.00  0.00    +0.082 C 
BRANCH  16  17
ATOM     17  C   UNL     1      -2.343 -11.189 -23.090  0.00  0.00    +0.110 C 
ATOM     18  C   UNL     1      -1.123 -11.813 -23.750  0.00  0.00    -0.027 C 
BRANCH  17  19
ATOM     19  O   UNL     1      -3.531 -11.499 -23.907  0.00  0.00    -0.461 OA
BRANCH  19  20
ATOM     20  C   UNL     1      -4.018 -12.771 -24.043  0.00  0.00    +0.310 C 
ATOM     21  O   UNL     1      -3.631 -13.748 -23.419  0.00  0.00    -0.251 OA
BRANCH  20  22
ATOM     22  C   UNL     1      -5.121 -12.789 -25.088  0.00  0.00    +0.071 C 
BRANCH  22  23
ATOM     23  C   UNL     1      -5.638 -14.166 -25.522  0.00  0.00    +0.062 C 
ATOM     24  C   UNL     1      -4.643 -15.048 -26.260  0.00  0.00    -0.038 C 
BRANCH  23  25
ATOM     25  O   UNL     1      -6.197 -14.884 -24.425  0.00  0.00    -0.392 OA
ATOM     26  H   UNL     1      -5.498 -15.089 -23.784  0.00  0.00    +0.000 HD
ENDBRANCH  23  25
ENDBRANCH  22  23
ENDBRANCH  20  22
ENDBRANCH  19  20
ENDBRANCH  17  19
ENDBRANCH  16  17
ENDBRANCH  14  16
ENDBRANCH   1  14
TORSDOF 15
