REMARK  Name = files/phb_9_unit.pdb
REMARK  35 active torsions:
REMARK  status: ('A' for Active; 'I' for Inactive)
REMARK    1  A    between atoms: C_1  and  C_2
REMARK    2  A    between atoms: C_1  and  C_30
REMARK    3  A    between atoms: C_2  and  O_4
REMARK    4  A    between atoms: O_4  and  C_5
REMARK    5  A    between atoms: C_5  and  C_7
REMARK    6  A    between atoms: C_7  and  C_8
REMARK    7  A    between atoms: C_8  and  O_10
REMARK    8  A    between atoms: O_10  and  C_11
REMARK    9  A    between atoms: C_11  and  C_13
REMARK   10  A    between atoms: C_13  and  C_14
REMARK   11  A    between atoms: C_14  and  O_16
REMARK   12  A    between atoms: O_16  and  C_17
REMARK   13  A    between atoms: C_17  and  C_19
REMARK   14  A    between atoms: C_19  and  C_20
REMARK   15  A    between atoms: C_20  and  O_22
REMARK   16  A    between atoms: O_22  and  C_23
REMARK   17  A    between atoms: C_23  and  C_25
REMARK   18  A    between atoms: C_25  and  C_26
REMARK   19  A    between atoms: C_26  and  O_28
REMARK   20  A    between atoms: C_30  and  O_32
REMARK   21  A    between atoms: O_32  and  C_33
REMARK   22  A    between atoms: C_33  and  C_35
REMARK   23  A    between atoms: C_35  and  C_36
REMARK   24  A    between atoms: C_36  and  O_38
REMARK   25  A    between atoms: O_38  and  C_39
REMARK   26  A    between atoms: C_39  and  C_41
REMARK   27  A    between atoms: C_41  and  C_42
REMARK   28  A    between atoms: C_42  and  O_44
REMARK   29  A    between atoms: O_44  and  C_45
REMARK   30  A    between atoms: C_45  and  C_47
REMARK   31  A    between atoms: C_47  and  C_48
REMARK   32  A    between atoms: C_48  and  O_50
REMARK   33  A    between atoms: O_50  and  C_51
REMARK   34  A    between atoms: C_51  and  C_53
REMARK   35  A    between atoms: C_53  and  C_54
REMARK                            x       y       z     vdW  Elec       q    Type
REMARK                         _______ _______ _______ _____ _____    ______ ____
ROOT
ATOM      1  C   UNL     1      -7.137 -10.675 -23.490  0.00  0.00    +0.082 C 
ENDROOT
BRANCH   1   2
ATOM      2  C   UNL     1      -6.775 -11.768 -24.686  0.00  0.00    +0.311 C 
ATOM      3  O   UNL     1      -5.821 -12.531 -24.594  0.00  0.00    -0.251 OA
BRANCH   2   4
ATOM      4  O   UNL     1      -7.648 -11.793 -25.765  0.00  0.00    -0.461 OA
BRANCH   4   5
ATOM      5  C   UNL     1      -7.803 -12.601 -27.098  0.00  0.00    +0.110 C 
ATOM      6  C   UNL     1      -8.390 -14.027 -27.127  0.00  0.00    -0.027 C 
BRANCH   5   7
ATOM      7  C   UNL     1      -6.906 -12.377 -28.378  0.00  0.00    +0.082 C 
BRANCH   7   8
ATOM      8  C   UNL     1      -5.879 -13.460 -28.878  0.00  0.00    +0.311 C 
ATOM      9  O   UNL     1      -4.843 -13.746 -28.299  0.00  0.00    -0.251 OA
BRANCH   8  10
ATOM     10  O   UNL     1      -6.222 -13.988 -30.097  0.00  0.00    -0.461 OA
BRANCH  10  11
ATOM     11  C   UNL     1      -5.413 -14.907 -30.942  0.00  0.00    +0.110 C 
ATOM     12  C   UNL     1      -5.283 -16.360 -30.500  0.00  0.00    -0.027 C 
BRANCH  11  13
ATOM     13  C   UNL     1      -4.185 -14.330 -31.667  0.00  0.00    +0.082 C 
BRANCH  13  14
ATOM     14  C   UNL     1      -2.729 -14.318 -31.211  0.00  0.00    +0.311 C 
ATOM     15  O   UNL     1      -1.958 -13.499 -31.711  0.00  0.00    -0.251 OA
BRANCH  14  16
ATOM     16  O   UNL     1      -2.307 -15.304 -30.380  0.00  0.00    -0.461 OA
BRANCH  16  17
ATOM     17  C   UNL     1      -0.916 -15.242 -29.855  0.00  0.00    +0.110 C 
ATOM     18  C   UNL     1      -0.601 -13.846 -29.302  0.00  0.00    -0.027 C 
BRANCH  17  19
ATOM     19  C   UNL     1       0.143 -15.770 -30.853  0.00  0.00    +0.082 C 
BRANCH  19  20
ATOM     20  C   UNL     1       1.595 -15.860 -30.379  0.00  0.00    +0.311 C 
ATOM     21  O   UNL     1       2.480 -16.405 -31.047  0.00  0.00    -0.251 OA
BRANCH  20  22
ATOM     22  O   UNL     1       1.821 -15.300 -29.177  0.00  0.00    -0.461 OA
BRANCH  22  23
ATOM     23  C   UNL     1       3.075 -15.511 -28.479  0.00  0.00    +0.110 C 
ATOM     24  C   UNL     1       2.766 -15.245 -27.006  0.00  0.00    -0.027 C 
BRANCH  23  25
ATOM     25  C   UNL     1       4.264 -14.674 -28.968  0.00  0.00    +0.081 C 
BRANCH  25  26
ATOM     26  C   UNL     1       4.053 -13.186 -28.948  0.00  0.00    +0.308 C 
ATOM     27  O   UNL     1       3.002 -12.577 -28.863  0.00  0.00    -0.251 OA
ATOM     28  O   UNL     1       5.220 -12.515 -29.071  0.00  0.00    -0.481 OA
ENDBRANCH  25  26
ENDBRANCH  23  25
ENDBRANCH  22  23
ENDBRANCH  20  22
ENDBRANCH  19  20
ENDBRANCH  17  19
ENDBRANCH  16  17
ENDBRANCH  14  16
ENDBRANCH  13  14
ENDBRANCH  11  13
ENDBRANCH  10  11
ENDBRANCH   8  10
ENDBRANCH   7   8
ENDBRANCH   5   7
ENDBRANCH   4   5
ENDBRANCH   2   4
ENDBRANCH   1   2
BRANCH   1  29
ATOM     29  C   UNL     1      -5.904  -9.833 -22.883  0.00  0.00    +0.110 C 
ATOM     30  C   UNL     1      -5.454  -8.771 -23.894  0.00  0.00    -0.027 C 
BRANCH  29  31
ATOM     31  O   UNL     1      -5.772  -9.377 -21.400  0.00  0.00    -0.461 OA
BRANCH  31  32
ATOM     32  C   UNL     1      -6.285  -8.360 -20.618  0.00  0.00    +0.311 C 
ATOM     33  O   UNL     1      -7.225  -7.657 -20.964  0.00  0.00    -0.251 OA
BRANCH  32  34
ATOM     34  C   UNL     1      -5.518  -8.201 -19.148  0.00  0.00    +0.082 C 
BRANCH  34  35
ATOM     35  C   UNL     1      -4.041  -7.580 -19.178  0.00  0.00    +0.110 C 
ATOM     36  C   UNL     1      -4.141  -6.032 -19.265  0.00  0.00    -0.027 C 
BRANCH  35  37
ATOM     37  O   UNL     1      -2.703  -8.182 -18.419  0.00  0.00    -0.461 OA
BRANCH  37  38
ATOM     38  C   UNL     1      -2.121  -8.339 -17.145  0.00  0.00    +0.311 C 
ATOM     39  O   UNL     1      -2.641  -8.035 -16.065  0.00  0.00    -0.251 OA
BRANCH  38  40
ATOM     40  C   UNL     1      -0.419  -8.924 -17.229  0.00  0.00    +0.082 C 
BRANCH  40  41
ATOM     41  C   UNL     1       0.223 -10.008 -16.092  0.00  0.00    +0.110 C 
ATOM     42  C   UNL     1      -0.758 -11.191 -16.054  0.00  0.00    -0.027 C 
BRANCH  41  43
ATOM     43  O   UNL     1       1.864 -10.480 -15.789  0.00  0.00    -0.461 OA
BRANCH  43  44
ATOM     44  C   UNL     1       3.053 -11.131 -16.318  0.00  0.00    +0.311 C 
ATOM     45  O   UNL     1       3.113 -11.483 -17.492  0.00  0.00    -0.251 OA
BRANCH  44  46
ATOM     46  C   UNL     1       4.398 -11.441 -15.185  0.00  0.00    +0.082 C 
BRANCH  46  47
ATOM     47  C   UNL     1       5.993 -12.163 -15.287  0.00  0.00    +0.110 C 
ATOM     48  C   UNL     1       7.010 -11.937 -16.428  0.00  0.00    -0.027 C 
BRANCH  47  49
ATOM     49  O   UNL     1       6.787 -12.116 -13.885  0.00  0.00    -0.461 OA
BRANCH  49  50
ATOM     50  C   UNL     1       8.048 -11.577 -13.558  0.00  0.00    +0.310 C 
ATOM     51  O   UNL     1       8.735 -10.908 -14.318  0.00  0.00    -0.251 OA
BRANCH  50  52
ATOM     52  C   UNL     1       8.480 -11.847 -12.072  0.00  0.00    +0.071 C 
BRANCH  52  53
ATOM     53  C   UNL     1       9.916 -11.542 -11.493  0.00  0.00    +0.062 C 
ATOM     54  C   UNL     1      10.647 -10.235 -11.804  0.00  0.00    -0.038 C 
BRANCH  53  55
ATOM     55  O   UNL     1       9.819 -11.599 -10.046  0.00  0.00    -0.392 OA
ATOM     56  H   UNL     1       9.255 -10.875  -9.731  0.00  0.00    +0.000 HD
ENDBRANCH  53  55
ENDBRANCH  52  53
ENDBRANCH  50  52
ENDBRANCH  49  50
ENDBRANCH  47  49
ENDBRANCH  46  47
ENDBRANCH  44  46
ENDBRANCH  43  44
ENDBRANCH  41  43
ENDBRANCH  40  41
ENDBRANCH  38  40
ENDBRANCH  37  38
ENDBRANCH  35  37
ENDBRANCH  34  35
ENDBRANCH  32  34
ENDBRANCH  31  32
ENDBRANCH  29  31
ENDBRANCH   1  29
TORSDOF 35
