REMARK  Name = files/phb_8_unit.pdb
REMARK  31 active torsions:
REMARK  status: ('A' for Active; 'I' for Inactive)
REMARK    1  A    between atoms: O_1  and  C_2
REMARK    2  A    between atoms: O_1  and  C_26
REMARK    3  A    between atoms: C_2  and  C_4
REMARK    4  A    between atoms: C_4  and  C_5
REMARK    5  A    between atoms: C_5  and  O_7
REMARK    6  A    between atoms: O_7  and  C_8
REMARK    7  A    between atoms: C_8  and  C_10
REMARK    8  A    between atoms: C_10  and  C_11
REMARK    9  A    between atoms: C_11  and  O_13
REMARK   10  A    between atoms: O_13  and  C_14
REMARK   11  A    between atoms: C_14  and  C_16
REMARK   12  A    between atoms: C_16  and  C_17
REMARK   13  A    between atoms: C_17  and  O_19
REMARK   14  A    between atoms: O_19  and  C_20
REMARK   15  A    between atoms: C_20  and  C_22
REMARK   16  A    between atoms: C_22  and  C_23
REMARK   17  A    between atoms: C_26  and  C_28
REMARK   18  A    between atoms: C_28  and  C_29
REMARK   19  A    between atoms: C_29  and  O_31
REMARK   20  A    between atoms: O_31  and  C_32
REMARK   21  A    between atoms: C_32  and  C_34
REMARK   22  A    between atoms: C_34  and  C_35
REMARK   23  A    between atoms: C_35  and  O_37
REMARK   24  A    between atoms: O_37  and  C_38
REMARK   25  A    between atoms: C_38  and  C_40
REMARK   26  A    between atoms: C_40  and  C_41
REMARK   27  A    between atoms: C_41  and  O_43
REMARK   28  A    between atoms: O_43  and  C_44
REMARK   29  A    between atoms: C_44  and  C_46
REMARK   30  A    between atoms: C_46  and  C_47
REMARK   31  A    between atoms: C_47  and  O_49
REMARK                            x       y       z     vdW  Elec       q    Type
REMARK                         _______ _______ _______ _____ _____    ______ ____
ROOT
ATOM      1  O   UNL     1      -4.198 -12.130 -25.920  0.00  0.00    -0.461 OA
ENDROOT
BRANCH   1   2
ATOM      2  C   UNL     1      -2.916 -12.486 -26.331  0.00  0.00    +0.311 C 
ATOM      3  O   UNL     1      -1.940 -11.764 -26.191  0.00  0.00    -0.251 OA
BRANCH   2   4
ATOM      4  C   UNL     1      -2.864 -13.925 -26.854  0.00  0.00    +0.082 C 
BRANCH   4   5
ATOM      5  C   UNL     1      -1.468 -14.560 -27.126  0.00  0.00    +0.110 C 
ATOM      6  C   UNL     1      -0.717 -13.936 -28.301  0.00  0.00    -0.027 C 
BRANCH   5   7
ATOM      7  O   UNL     1      -0.656 -14.558 -25.923  0.00  0.00    -0.461 OA
BRANCH   7   8
ATOM      8  C   UNL     1       0.381 -15.452 -25.863  0.00  0.00    +0.311 C 
ATOM      9  O   UNL     1       0.740 -16.161 -26.793  0.00  0.00    -0.251 OA
BRANCH   8  10
ATOM     10  C   UNL     1       1.006 -15.476 -24.476  0.00  0.00    +0.082 C 
BRANCH  10  11
ATOM     11  C   UNL     1      -0.023 -15.956 -23.442  0.00  0.00    +0.110 C 
ATOM     12  C   UNL     1      -0.198 -17.473 -23.527  0.00  0.00    -0.027 C 
BRANCH  11  13
ATOM     13  O   UNL     1       0.423 -15.623 -22.098  0.00  0.00    -0.461 OA
BRANCH  13  14
ATOM     14  C   UNL     1      -0.519 -15.185 -21.200  0.00  0.00    +0.311 C 
ATOM     15  O   UNL     1      -1.712 -15.037 -21.464  0.00  0.00    -0.251 OA
BRANCH  14  16
ATOM     16  C   UNL     1       0.069 -14.932 -19.806  0.00  0.00    +0.082 C 
BRANCH  16  17
ATOM     17  C   UNL     1       1.370 -14.114 -19.851  0.00  0.00    +0.110 C 
ATOM     18  C   UNL     1       1.037 -12.681 -20.338  0.00  0.00    -0.027 C 
BRANCH  17  19
ATOM     19  O   UNL     1       2.340 -14.183 -18.702  0.00  0.00    -0.461 OA
BRANCH  19  20
ATOM     20  C   UNL     1       2.227 -14.824 -17.473  0.00  0.00    +0.310 C 
ATOM     21  O   UNL     1       1.159 -15.163 -16.985  0.00  0.00    -0.251 OA
BRANCH  20  22
ATOM     22  C   UNL     1       3.628 -15.243 -16.900  0.00  0.00    +0.071 C 
BRANCH  22  23
ATOM     23  C   UNL     1       4.066 -15.277 -15.393  0.00  0.00    +0.062 C 
ATOM     24  C   UNL     1       3.457 -16.239 -14.362  0.00  0.00    -0.038 C 
BRANCH  23  25
ATOM     25  O   UNL     1       5.472 -15.572 -15.427  0.00  0.00    -0.392 OA
ATOM     26  H   UNL     1       5.607 -16.464 -15.783  0.00  0.00    +0.000 HD
ENDBRANCH  23  25
ENDBRANCH  22  23
ENDBRANCH  20  22
ENDBRANCH  19  20
ENDBRANCH  17  19
ENDBRANCH  16  17
ENDBRANCH  14  16
ENDBRANCH  13  14
ENDBRANCH  11  13
ENDBRANCH  10  11
ENDBRANCH   8  10
ENDBRANCH   7   8
ENDBRANCH   5   7
ENDBRANCH   4   5
ENDBRANCH   2   4
ENDBRANCH   1   2
BRANCH   1  27
ATOM     27  C   UNL     1      -4.256 -11.431 -24.626  0.00  0.00    +0.110 C 
ATOM     28  C   UNL     1      -4.247 -12.564 -23.605  0.00  0.00    -0.027 C 
BRANCH  27  29
ATOM     29  C   UNL     1      -5.522 -10.561 -24.381  0.00  0.00    +0.082 C 
BRANCH  29  30
ATOM     30  C   UNL     1      -5.698  -9.977 -22.953  0.00  0.00    +0.311 C 
ATOM     31  O   UNL     1      -6.788  -9.668 -22.490  0.00  0.00    -0.251 OA
BRANCH  30  32
ATOM     32  O   UNL     1      -4.515  -9.807 -22.265  0.00  0.00    -0.461 OA
BRANCH  32  33
ATOM     33  C   UNL     1      -4.560  -9.485 -20.835  0.00  0.00    +0.110 C 
ATOM     34  C   UNL     1      -4.844  -8.009 -20.543  0.00  0.00    -0.027 C 
BRANCH  33  35
ATOM     35  C   UNL     1      -3.248  -9.902 -20.141  0.00  0.00    +0.082 C 
BRANCH  35  36
ATOM     36  C   UNL     1      -2.034  -9.098 -20.541  0.00  0.00    +0.311 C 
ATOM     37  O   UNL     1      -1.433  -8.350 -19.782  0.00  0.00    -0.251 OA
BRANCH  36  38
ATOM     38  O   UNL     1      -1.676  -9.354 -21.830  0.00  0.00    -0.461 OA
BRANCH  38  39
ATOM     39  C   UNL     1      -0.526  -8.639 -22.361  0.00  0.00    +0.110 C 
ATOM     40  C   UNL     1      -0.926  -7.189 -22.635  0.00  0.00    -0.027 C 
BRANCH  39  41
ATOM     41  C   UNL     1      -0.108  -9.381 -23.637  0.00  0.00    +0.082 C 
BRANCH  41  42
ATOM     42  C   UNL     1       1.179  -8.870 -24.249  0.00  0.00    +0.311 C 
ATOM     43  O   UNL     1       2.034  -8.229 -23.655  0.00  0.00    -0.251 OA
BRANCH  42  44
ATOM     44  O   UNL     1       1.274  -9.291 -25.539  0.00  0.00    -0.461 OA
BRANCH  44  45
ATOM     45  C   UNL     1       2.446  -9.038 -26.353  0.00  0.00    +0.110 C 
ATOM     46  C   UNL     1       3.595  -9.949 -25.916  0.00  0.00    -0.027 C 
BRANCH  45  47
ATOM     47  C   UNL     1       2.932  -7.589 -26.444  0.00  0.00    +0.081 C 
BRANCH  47  48
ATOM     48  C   UNL     1       1.895  -6.627 -26.944  0.00  0.00    +0.308 C 
ATOM     49  O   UNL     1       0.685  -6.724 -26.860  0.00  0.00    -0.251 OA
ATOM     50  O   UNL     1       2.461  -5.532 -27.495  0.00  0.00    -0.481 OA
ENDBRANCH  47  48
ENDBRANCH  45  47
ENDBRANCH  44  45
ENDBRANCH  42  44
ENDBRANCH  41  42
ENDBRANCH  39  41
ENDBRANCH  38  39
ENDBRANCH  36  38
ENDBRANCH  35  36
ENDBRANCH  33  35
ENDBRANCH  32  33
ENDBRANCH  30  32
ENDBRANCH  29  30
ENDBRANCH  27  29
ENDBRANCH   1  27
TORSDOF 31
