REMARK  Name = files/phb_10_unit.pdb
REMARK  39 active torsions:
REMARK  status: ('A' for Active; 'I' for Inactive)
REMARK    1  A    between atoms: O_1  and  C_2
REMARK    2  A    between atoms: O_1  and  C_33
REMARK    3  A    between atoms: C_2  and  C_4
REMARK    4  A    between atoms: C_4  and  C_5
REMARK    5  A    between atoms: C_5  and  O_7
REMARK    6  A    between atoms: O_7  and  C_8
REMARK    7  A    between atoms: C_8  and  C_10
REMARK    8  A    between atoms: C_10  and  C_11
REMARK    9  A    between atoms: C_11  and  O_13
REMARK   10  A    between atoms: O_13  and  C_14
REMARK   11  A    between atoms: C_14  and  C_16
REMARK   12  A    between atoms: C_16  and  C_17
REMARK   13  A    between atoms: C_17  and  O_19
REMARK   14  A    between atoms: O_19  and  C_20
REMARK   15  A    between atoms: C_20  and  C_22
REMARK   16  A    between atoms: C_22  and  C_23
REMARK   17  A    between atoms: C_23  and  O_25
REMARK   18  A    between atoms: O_25  and  C_26
REMARK   19  A    between atoms: C_26  and  C_28
REMARK   20  A    between atoms: C_28  and  C_29
REMARK   21  A    between atoms: C_29  and  O_31
REMARK   22  A    between atoms: C_33  and  C_35
REMARK   23  A    between atoms: C_35  and  C_36
REMARK   24  A    between atoms: C_36  and  O_38
REMARK   25  A    between atoms: O_38  and  C_39
REMARK   26  A    between atoms: C_39  and  C_41
REMARK   27  A    between atoms: C_41  and  C_42
REMARK   28  A    between atoms: C_42  and  O_44
REMARK   29  A    between atoms: O_44  and  C_45
REMARK   30  A    between atoms: C_45  and  C_47
REMARK   31  A    between atoms: C_47  and  C_48
REMARK   32  A    between atoms: C_48  and  O_50
REMARK   33  A    between atoms: O_50  and  C_51
REMARK   34  A    between atoms: C_51  and  C_53
REMARK   35  A    between atoms: C_53  and  C_54
REMARK   36  A    between atoms: C_54  and  O_56
REMARK   37  A    between atoms: O_56  and  C_57
REMARK   38  A    between atoms: C_57  and  C_59
REMARK   39  A    between atoms: C_59  and  C_60
REMARK                            x       y       z     vdW  Elec       q    Type
REMARK                         _______ _______ _______ _____ _____    ______ ____
ROOT
ATOM      1  O   UNL     1       1.002 -14.765 -25.605  0.00  0.00    -0.461 OA
ENDROOT
BRANCH   1   2
ATOM      2  C   UNL     1       2.046 -15.437 -24.775  0.00  0.00    +0.110 C 
ATOM      3  C   UNL     1       3.422 -15.537 -25.433  0.00  0.00    -0.027 C 
BRANCH   2   4
ATOM      4  C   UNL     1       1.654 -16.752 -24.047  0.00  0.00    +0.082 C 
BRANCH   4   5
ATOM      5  C   UNL     1       2.440 -17.098 -22.746  0.00  0.00    +0.311 C 
ATOM      6  O   UNL     1       2.731 -18.252 -22.439  0.00  0.00    -0.251 OA
BRANCH   5   7
ATOM      7  O   UNL     1       2.710 -16.029 -21.946  0.00  0.00    -0.461 OA
BRANCH   7   8
ATOM      8  C   UNL     1       3.789 -15.981 -20.941  0.00  0.00    +0.110 C 
ATOM      9  C   UNL     1       4.175 -17.153 -20.019  0.00  0.00    -0.027 C 
BRANCH   8  10
ATOM     10  C   UNL     1       3.567 -14.712 -20.089  0.00  0.00    +0.082 C 
BRANCH  10  11
ATOM     11  C   UNL     1       2.495 -14.759 -18.979  0.00  0.00    +0.311 C 
ATOM     12  O   UNL     1       2.456 -13.931 -18.079  0.00  0.00    -0.251 OA
BRANCH  11  13
ATOM     13  O   UNL     1       1.604 -15.757 -19.146  0.00  0.00    -0.461 OA
BRANCH  13  14
ATOM     14  C   UNL     1       0.359 -16.017 -18.418  0.00  0.00    +0.110 C 
ATOM     15  C   UNL     1      -0.811 -15.146 -18.867  0.00  0.00    -0.027 C 
BRANCH  14  16
ATOM     16  C   UNL     1       0.341 -16.369 -16.920  0.00  0.00    +0.082 C 
BRANCH  16  17
ATOM     17  C   UNL     1      -0.086 -15.298 -15.915  0.00  0.00    +0.311 C 
ATOM     18  O   UNL     1      -1.056 -15.391 -15.193  0.00  0.00    -0.251 OA
BRANCH  17  19
ATOM     19  O   UNL     1       0.837 -14.268 -15.889  0.00  0.00    -0.461 OA
BRANCH  19  20
ATOM     20  C   UNL     1       0.781 -13.242 -14.839  0.00  0.00    +0.110 C 
ATOM     21  C   UNL     1       1.093 -13.885 -13.484  0.00  0.00    -0.027 C 
BRANCH  20  22
ATOM     22  C   UNL     1      -0.486 -12.376 -14.903  0.00  0.00    +0.082 C 
BRANCH  22  23
ATOM     23  C   UNL     1      -0.419 -11.016 -14.209  0.00  0.00    +0.311 C 
ATOM     24  O   UNL     1       0.479 -10.618 -13.482  0.00  0.00    -0.251 OA
BRANCH  23  25
ATOM     25  O   UNL     1      -1.541 -10.298 -14.525  0.00  0.00    -0.461 OA
BRANCH  25  26
ATOM     26  C   UNL     1      -1.772  -8.923 -14.083  0.00  0.00    +0.110 C 
ATOM     27  C   UNL     1      -0.817  -7.925 -14.745  0.00  0.00    -0.027 C 
BRANCH  26  28
ATOM     28  C   UNL     1      -1.861  -8.747 -12.561  0.00  0.00    +0.081 C 
BRANCH  28  29
ATOM     29  C   UNL     1      -2.627  -7.491 -12.202  0.00  0.00    +0.308 C 
ATOM     30  O   UNL     1      -3.260  -6.773 -12.967  0.00  0.00    -0.251 OA
ATOM     31  O   UNL     1      -2.560  -7.205 -10.897  0.00  0.00    -0.481 OA
ENDBRANCH  28  29
ENDBRANCH  26  28
ENDBRANCH  25  26
ENDBRANCH  23  25
ENDBRANCH  22  23
ENDBRANCH  20  22
ENDBRANCH  19  20
ENDBRANCH  17  19
ENDBRANCH  16  17
ENDBRANCH  14  16
ENDBRANCH  13  14
ENDBRANCH  11  13
ENDBRANCH  10  11
ENDBRANCH   8  10
ENDBRANCH   7   8
ENDBRANCH   5   7
ENDBRANCH   4   5
ENDBRANCH   2   4
ENDBRANCH   1   2
BRANCH   1  32
ATOM     32  C   UNL     1       0.732 -14.915 -26.940  0.00  0.00    +0.311 C 
ATOM     33  O   UNL     1       1.147 -15.835 -27.630  0.00  0.00    -0.251 OA
BRANCH  32  34
ATOM     34  C   UNL     1      -0.286 -13.860 -27.452  0.00  0.00    +0.082 C 
BRANCH  34  35
ATOM     35  C   UNL     1       0.101 -12.374 -27.542  0.00  0.00    +0.110 C 
ATOM     36  C   UNL     1       0.935 -11.848 -26.385  0.00  0.00    -0.027 C 
BRANCH  35  37
ATOM     37  O   UNL     1       0.529 -11.902 -28.846  0.00  0.00    -0.461 OA
BRANCH  37  38
ATOM     38  C   UNL     1       1.556 -12.464 -29.530  0.00  0.00    +0.311 C 
ATOM     39  O   UNL     1       2.266 -13.369 -29.126  0.00  0.00    -0.251 OA
BRANCH  38  40
ATOM     40  C   UNL     1       1.773 -11.695 -30.820  0.00  0.00    +0.082 C 
BRANCH  40  41
ATOM     41  C   UNL     1       2.493 -10.401 -30.426  0.00  0.00    +0.110 C 
ATOM     42  C   UNL     1       3.969 -10.398 -30.827  0.00  0.00    -0.027 C 
BRANCH  41  43
ATOM     43  O   UNL     1       1.753  -9.151 -30.549  0.00  0.00    -0.461 OA
BRANCH  43  44
ATOM     44  C   UNL     1       0.758  -8.898 -31.434  0.00  0.00    +0.311 C 
ATOM     45  O   UNL     1       0.815  -9.191 -32.622  0.00  0.00    -0.251 OA
BRANCH  44  46
ATOM     46  C   UNL     1      -0.483  -8.252 -30.776  0.00  0.00    +0.082 C 
BRANCH  46  47
ATOM     47  C   UNL     1      -0.362  -8.004 -29.262  0.00  0.00    +0.110 C 
ATOM     48  C   UNL     1       0.577  -6.827 -28.959  0.00  0.00    -0.027 C 
BRANCH  47  49
ATOM     49  O   UNL     1      -1.594  -7.978 -28.436  0.00  0.00    -0.461 OA
BRANCH  49  50
ATOM     50  C   UNL     1      -2.844  -7.748 -28.880  0.00  0.00    +0.311 C 
ATOM     51  O   UNL     1      -3.104  -7.231 -29.991  0.00  0.00    -0.251 OA
BRANCH  50  52
ATOM     52  C   UNL     1      -3.940  -8.359 -27.965  0.00  0.00    +0.082 C 
BRANCH  52  53
ATOM     53  C   UNL     1      -3.719  -8.290 -26.420  0.00  0.00    +0.110 C 
ATOM     54  C   UNL     1      -3.927  -6.804 -26.048  0.00  0.00    -0.027 C 
BRANCH  53  55
ATOM     55  O   UNL     1      -4.633  -9.252 -25.674  0.00  0.00    -0.461 OA
BRANCH  55  56
ATOM     56  C   UNL     1      -4.209  -9.985 -24.550  0.00  0.00    +0.310 C 
ATOM     57  O   UNL     1      -3.131  -9.791 -24.004  0.00  0.00    -0.251 OA
BRANCH  56  58
ATOM     58  C   UNL     1      -5.172 -11.185 -24.154  0.00  0.00    +0.071 C 
BRANCH  58  59
ATOM     59  C   UNL     1      -5.005 -12.042 -22.829  0.00  0.00    +0.062 C 
ATOM     60  C   UNL     1      -5.813 -11.644 -21.567  0.00  0.00    -0.038 C 
BRANCH  59  61
ATOM     61  O   UNL     1      -5.442 -13.386 -23.120  0.00  0.00    -0.392 OA
ATOM     62  H   UNL     1      -6.390 -13.381 -23.327  0.00  0.00    +0.000 HD
ENDBRANCH  59  61
ENDBRANCH  58  59
ENDBRANCH  56  58
ENDBRANCH  55  56
ENDBRANCH  53  55
ENDBRANCH  52  53
ENDBRANCH  50  52
ENDBRANCH  49  50
ENDBRANCH  47  49
ENDBRANCH  46  47
ENDBRANCH  44  46
ENDBRANCH  43  44
ENDBRANCH  41  43
ENDBRANCH  40  41
ENDBRANCH  38  40
ENDBRANCH  37  38
ENDBRANCH  35  37
ENDBRANCH  34  35
ENDBRANCH  32  34
ENDBRANCH   1  32
TORSDOF 39
