REMARK  Name = files/phb_6_unit.pdb
REMARK  23 active torsions:
REMARK  status: ('A' for Active; 'I' for Inactive)
REMARK    1  A    between atoms: O_1  and  C_2
REMARK    2  A    between atoms: O_1  and  C_21
REMARK    3  A    between atoms: C_2  and  C_4
REMARK    4  A    between atoms: C_4  and  C_5
REMARK    5  A    between atoms: C_5  and  O_7
REMARK    6  A    between atoms: O_7  and  C_8
REMARK    7  A    between atoms: C_8  and  C_10
REMARK    8  A    between atoms: C_10  and  C_11
REMARK    9  A    between atoms: C_11  and  O_13
REMARK   10  A    between atoms: O_13  and  C_14
REMARK   11  A    between atoms: C_14  and  C_16
REMARK   12  A    between atoms: C_16  and  C_17
REMARK   13  A    between atoms: C_17  and  O_19
REMARK   14  A    between atoms: C_21  and  C_23
REMARK   15  A    between atoms: C_23  and  C_24
REMARK   16  A    between atoms: C_24  and  O_26
REMARK   17  A    between atoms: O_26  and  C_27
REMARK   18  A    between atoms: C_27  and  C_29
REMARK   19  A    between atoms: C_29  and  C_30
REMARK   20  A    between atoms: C_30  and  O_32
REMARK   21  A    between atoms: O_32  and  C_33
REMARK   22  A    between atoms: C_33  and  C_35
REMARK   23  A    between atoms: C_35  and  C_36
REMARK                            x       y       z     vdW  Elec       q    Type
REMARK                         _______ _______ _______ _____ _____    ______ ____
ROOT
ATOM      1  O   UNL     1      -0.354 -12.425 -22.155  0.00  0.00    -0.461 OA
ENDROOT
BRANCH   1   2
ATOM      2  C   UNL     1       0.124 -13.754 -21.508  0.00  0.00    +0.110 C 
ATOM      3  C   UNL     1       0.510 -13.662 -20.019  0.00  0.00    -0.027 C 
BRANCH   2   4
ATOM      4  C   UNL     1       1.169 -14.617 -22.295  0.00  0.00    +0.082 C 
BRANCH   4   5
ATOM      5  C   UNL     1       1.327 -16.100 -21.822  0.00  0.00    +0.311 C 
ATOM      6  O   UNL     1       2.177 -16.479 -21.029  0.00  0.00    -0.251 OA
BRANCH   5   7
ATOM      7  O   UNL     1       0.426 -16.944 -22.429  0.00  0.00    -0.461 OA
BRANCH   7   8
ATOM      8  C   UNL     1       0.545 -18.372 -22.141  0.00  0.00    +0.110 C 
ATOM      9  C   UNL     1       0.991 -19.054 -23.440  0.00  0.00    -0.027 C 
BRANCH   8  10
ATOM     10  C   UNL     1      -0.821 -18.939 -21.746  0.00  0.00    +0.082 C 
BRANCH  10  11
ATOM     11  C   UNL     1      -1.265 -18.368 -20.426  0.00  0.00    +0.311 C 
ATOM     12  O   UNL     1      -2.024 -17.413 -20.307  0.00  0.00    -0.251 OA
BRANCH  11  13
ATOM     13  O   UNL     1      -0.704 -19.068 -19.406  0.00  0.00    -0.461 OA
BRANCH  13  14
ATOM     14  C   UNL     1      -1.065 -18.723 -18.044  0.00  0.00    +0.110 C 
ATOM     15  C   UNL     1      -2.567 -18.908 -17.806  0.00  0.00    -0.027 C 
BRANCH  14  16
ATOM     16  C   UNL     1      -0.538 -17.337 -17.664  0.00  0.00    +0.081 C 
BRANCH  16  17
ATOM     17  C   UNL     1      -0.695 -17.082 -16.194  0.00  0.00    +0.308 C 
ATOM     18  O   UNL     1      -0.748 -17.914 -15.307  0.00  0.00    -0.251 OA
ATOM     19  O   UNL     1      -0.741 -15.769 -15.903  0.00  0.00    -0.481 OA
ENDBRANCH  16  17
ENDBRANCH  14  16
ENDBRANCH  13  14
ENDBRANCH  11  13
ENDBRANCH  10  11
ENDBRANCH   8  10
ENDBRANCH   7   8
ENDBRANCH   5   7
ENDBRANCH   4   5
ENDBRANCH   2   4
ENDBRANCH   1   2
BRANCH   1  20
ATOM     20  C   UNL     1       0.344 -11.244 -22.179  0.00  0.00    +0.311 C 
ATOM     21  O   UNL     1       1.492 -11.194 -21.735  0.00  0.00    -0.251 OA
BRANCH  20  22
ATOM     22  C   UNL     1      -0.301  -9.889 -22.822  0.00  0.00    +0.082 C 
BRANCH  22  23
ATOM     23  C   UNL     1      -1.711  -9.600 -23.471  0.00  0.00    +0.110 C 
ATOM     24  C   UNL     1      -2.902  -9.922 -22.566  0.00  0.00    -0.027 C 
BRANCH  23  25
ATOM     25  O   UNL     1      -1.856  -8.227 -24.219  0.00  0.00    -0.461 OA
BRANCH  25  26
ATOM     26  C   UNL     1      -2.337  -7.051 -23.695  0.00  0.00    +0.311 C 
ATOM     27  O   UNL     1      -2.594  -6.934 -22.498  0.00  0.00    -0.251 OA
BRANCH  26  28
ATOM     28  C   UNL     1      -2.626  -5.809 -24.641  0.00  0.00    +0.082 C 
BRANCH  28  29
ATOM     29  C   UNL     1      -2.343  -5.691 -26.166  0.00  0.00    +0.110 C 
ATOM     30  C   UNL     1      -3.117  -4.478 -26.800  0.00  0.00    -0.027 C 
BRANCH  29  31
ATOM     31  O   UNL     1      -0.898  -5.550 -26.403  0.00  0.00    -0.461 OA
BRANCH  31  32
ATOM     32  C   UNL     1      -0.476  -5.777 -27.689  0.00  0.00    +0.310 C 
ATOM     33  O   UNL     1      -1.272  -5.955 -28.626  0.00  0.00    -0.251 OA
BRANCH  32  34
ATOM     34  C   UNL     1       1.019  -6.005 -27.881  0.00  0.00    +0.071 C 
BRANCH  34  35
ATOM     35  C   UNL     1       2.108  -5.020 -27.433  0.00  0.00    +0.062 C 
ATOM     36  C   UNL     1       2.596  -5.123 -25.997  0.00  0.00    -0.038 C 
BRANCH  35  37
ATOM     37  O   UNL     1       3.279  -5.243 -28.247  0.00  0.00    -0.392 OA
ATOM     38  H   UNL     1       3.623  -6.135 -28.082  0.00  0.00    +0.000 HD
ENDBRANCH  35  37
ENDBRANCH  34  35
ENDBRANCH  32  34
ENDBRANCH  31  32
ENDBRANCH  29  31
ENDBRANCH  28  29
ENDBRANCH  26  28
ENDBRANCH  25  26
ENDBRANCH  23  25
ENDBRANCH  22  23
ENDBRANCH  20  22
ENDBRANCH   1  20
TORSDOF 23
