REMARK  Name = files/phb_3_unit.pdb
REMARK  11 active torsions:
REMARK  status: ('A' for Active; 'I' for Inactive)
REMARK    1  A    between atoms: C_1  and  C_2
REMARK    2  A    between atoms: C_1  and  C_11
REMARK    3  A    between atoms: C_2  and  O_4
REMARK    4  A    between atoms: O_4  and  C_5
REMARK    5  A    between atoms: C_5  and  C_7
REMARK    6  A    between atoms: C_7  and  C_8
REMARK    7  A    between atoms: C_11  and  O_13
REMARK    8  A    between atoms: O_13  and  C_14
REMARK    9  A    between atoms: C_14  and  C_16
REMARK   10  A    between atoms: C_16  and  C_17
REMARK   11  A    between atoms: C_17  and  O_19
REMARK                            x       y       z     vdW  Elec       q    Type
REMARK                         _______ _______ _______ _____ _____    ______ ____
ROOT
ATOM      1  C   UNL     1      -2.553 -10.614 -23.497  0.00  0.00    +0.082 C 
ENDROOT
BRANCH   1   2
ATOM      2  C   UNL     1      -1.640 -11.633 -24.147  0.00  0.00    +0.311 C 
ATOM      3  O   UNL     1      -1.736 -12.847 -24.035  0.00  0.00    -0.251 OA
BRANCH   2   4
ATOM      4  O   UNL     1      -0.751 -10.979 -24.950  0.00  0.00    -0.461 OA
BRANCH   4   5
ATOM      5  C   UNL     1       0.248 -11.718 -25.701  0.00  0.00    +0.110 C 
ATOM      6  C   UNL     1      -0.401 -12.527 -26.826  0.00  0.00    -0.027 C 
BRANCH   5   7
ATOM      7  C   UNL     1       1.178 -12.520 -24.787  0.00  0.00    +0.081 C 
BRANCH   7   8
ATOM      8  C   UNL     1       2.426 -12.954 -25.506  0.00  0.00    +0.308 C 
ATOM      9  O   UNL     1       2.669 -12.856 -26.694  0.00  0.00    -0.251 OA
ATOM     10  O   UNL     1       3.323 -13.522 -24.671  0.00  0.00    -0.481 OA
ENDBRANCH   7   8
ENDBRANCH   5   7
ENDBRANCH   4   5
ENDBRANCH   2   4
ENDBRANCH   1   2
BRANCH   1  11
ATOM     11  C   UNL     1      -3.193 -11.006 -22.159  0.00  0.00    +0.110 C 
ATOM     12  C   UNL     1      -4.078 -12.250 -22.222  0.00  0.00    -0.027 C 
BRANCH  11  13
ATOM     13  O   UNL     1      -2.381 -11.092 -20.954  0.00  0.00    -0.461 OA
BRANCH  13  14
ATOM     14  C   UNL     1      -1.028 -11.037 -20.931  0.00  0.00    +0.310 C 
ATOM     15  O   UNL     1      -0.296 -10.898 -21.900  0.00  0.00    -0.251 OA
BRANCH  14  16
ATOM     16  C   UNL     1      -0.502 -11.134 -19.522  0.00  0.00    +0.071 C 
BRANCH  16  17
ATOM     17  C   UNL     1      -0.146 -12.553 -19.099  0.00  0.00    +0.062 C 
ATOM     18  C   UNL     1       0.895 -13.246 -19.971  0.00  0.00    -0.038 C 
BRANCH  17  19
ATOM     19  O   UNL     1       0.355 -12.512 -17.755  0.00  0.00    -0.392 OA
ATOM     20  H   UNL     1       1.168 -11.983 -17.729  0.00  0.00    +0.000 HD
ENDBRANCH  17  19
ENDBRANCH  16  17
ENDBRANCH  14  16
ENDBRANCH  13  14
ENDBRANCH  11  13
ENDBRANCH   1  11
TORSDOF 11
