REMARK  Name = files/phb_2_unit.pdb
REMARK  7 active torsions:
REMARK  status: ('A' for Active; 'I' for Inactive)
REMARK    1  A    between atoms: C_1  and  O_3
REMARK    2  A    between atoms: C_1  and  C_10
REMARK    3  A    between atoms: O_3  and  C_4
REMARK    4  A    between atoms: C_4  and  C_6
REMARK    5  A    between atoms: C_6  and  C_7
REMARK    6  A    between atoms: C_10  and  C_11
REMARK    7  A    between atoms: C_11  and  O_13
REMARK                            x       y       z     vdW  Elec       q    Type
REMARK                         _______ _______ _______ _____ _____    ______ ____
ROOT
ATOM      1  C   UNL     1      -0.892 -12.460 -21.982  0.00  0.00    +0.310 C 
ATOM      2  O   UNL     1      -1.015 -11.774 -20.974  0.00  0.00    -0.251 OA
ENDROOT
BRANCH   1   3
ATOM      3  O   UNL     1      -0.140 -12.127 -23.066  0.00  0.00    -0.461 OA
BRANCH   3   4
ATOM      4  C   UNL     1       0.622 -10.881 -23.071  0.00  0.00    +0.110 C 
ATOM      5  C   UNL     1       1.729 -10.896 -22.016  0.00  0.00    -0.027 C 
BRANCH   4   6
ATOM      6  C   UNL     1      -0.293  -9.653 -23.010  0.00  0.00    +0.081 C 
BRANCH   6   7
ATOM      7  C   UNL     1       0.417  -8.372 -23.376  0.00  0.00    +0.308 C 
ATOM      8  O   UNL     1       1.477  -8.252 -23.963  0.00  0.00    -0.251 OA
ATOM      9  O   UNL     1      -0.305  -7.290 -23.011  0.00  0.00    -0.481 OA
ENDBRANCH   6   7
ENDBRANCH   4   6
ENDBRANCH   3   4
ENDBRANCH   1   3
BRANCH   1  10
ATOM     10  C   UNL     1      -1.663 -13.746 -22.182  0.00  0.00    +0.071 C 
BRANCH  10  11
ATOM     11  C   UNL     1      -0.946 -14.850 -22.953  0.00  0.00    +0.062 C 
ATOM     12  C   UNL     1       0.351 -15.319 -22.308  0.00  0.00    -0.038 C 
BRANCH  11  13
ATOM     13  O   UNL     1      -1.826 -15.978 -23.054  0.00  0.00    -0.392 OA
ATOM     14  H   UNL     1      -2.027 -16.312 -22.165  0.00  0.00    +0.000 HD
ENDBRANCH  11  13
ENDBRANCH  10  11
ENDBRANCH   1  10
TORSDOF 7
