REMARK  Name = output/receptor_files/7CWK_Collagen_type_I_cleaned.pdb
REMARK                            x       y       z     vdW  Elec       q    Type
REMARK                         _______ _______ _______ _____ _____    ______ ____
ATOM      1  N   PRO A   1      31.622   9.847  13.915  0.00  0.00    -0.212 N 
ATOM      2  CA  PRO A   1      30.686  10.261  12.865  0.00  0.00    +0.137 C 
ATOM      3  C   PRO A   1      29.288  10.506  13.415  0.00  0.00    +0.224 C 
ATOM      4  O   PRO A   1      28.970  10.034  14.505  0.00  0.00    -0.287 OA
ATOM      5  CB  PRO A   1      30.688   9.071  11.900  0.00  0.00    +0.027 C 
ATOM      6  CG  PRO A   1      31.967   8.366  12.163  0.00  0.00    +0.021 C 
ATOM      7  CD  PRO A   1      32.230   8.538  13.624  0.00  0.00    +0.089 C 
ATOM      8  H   PRO A   1      31.119   9.787  14.800  0.00  0.00    +0.000 HD
ATOM      9  H   PRO A   1      32.370  10.539  13.963  0.00  0.00    +0.000 HD
TER 
REMARK  Name = output/receptor_files/7CWK_Collagen_type_I_cleaned.pdb
REMARK                            x       y       z     vdW  Elec       q    Type
REMARK                         _______ _______ _______ _____ _____    ______ ____
ATOM      1  N   GLY B   1      25.424  10.042  14.262  0.00  0.00    -0.121 N 
ATOM      2  CA  GLY B   1      24.651   8.843  14.515  0.00  0.00    +0.194 C 
ATOM      3  C   GLY B   1      23.701   8.507  13.386  0.00  0.00    +0.245 C 
ATOM      4  O   GLY B   1      23.465   9.334  12.505  0.00  0.00    -0.273 OA
ATOM      5  N   PRO B   2      23.157   7.283  13.399  0.00  0.00    -0.273 N 
ATOM      6  CA  PRO B   2      22.190   6.870  12.379  0.00  0.00    +0.140 C 
ATOM      7  C   PRO B   2      20.967   7.773  12.384  0.00  0.00    +0.227 C 
ATOM      8  O   PRO B   2      20.589   8.276  13.442  0.00  0.00    -0.286 OA
ATOM      9  CB  PRO B   2      21.817   5.443  12.798  0.00  0.00    +0.030 C 
ATOM     10  CG  PRO B   2      22.940   4.988  13.666  0.00  0.00    +0.024 C 
ATOM     11  CD  PRO B   2      23.423   6.214  14.374  0.00  0.00    +0.094 C 
ATOM     12  H   GLY B   1      26.044  10.220  15.052  0.00  0.00    +0.000 HD
ATOM     13  H   GLY B   1      24.793  10.834  14.140  0.00  0.00    +0.000 HD
ATOM     14  H   GLY B   1      25.979   9.916  13.415  0.00  0.00    +0.000 HD
TER 
REMARK  Name = output/receptor_files/7CWK_Collagen_type_I_cleaned.pdb
REMARK                            x       y       z     vdW  Elec       q    Type
REMARK                         _______ _______ _______ _____ _____    ______ ____
ATOM      1  N   GLY C   1      17.204   8.886  12.741  0.00  0.00    -0.121 N 
ATOM      2  CA  GLY C   1      16.156   8.368  13.599  0.00  0.00    +0.194 C 
ATOM      3  C   GLY C   1      15.164   7.496  12.856  0.00  0.00    +0.245 C 
ATOM      4  O   GLY C   1      15.087   7.545  11.628  0.00  0.00    -0.273 OA
ATOM      5  N   PRO C   2      14.403   6.680  13.597  0.00  0.00    -0.273 N 
ATOM      6  CA  PRO C   2      13.387   5.832  12.972  0.00  0.00    +0.140 C 
ATOM      7  C   PRO C   2      12.242   6.663  12.407  0.00  0.00    +0.227 C 
ATOM      8  O   PRO C   2      12.029   7.793  12.847  0.00  0.00    -0.286 OA
ATOM      9  CB  PRO C   2      12.913   4.947  14.127  0.00  0.00    +0.030 C 
ATOM     10  CG  PRO C   2      13.154   5.771  15.342  0.00  0.00    +0.024 C 
ATOM     11  CD  PRO C   2      14.421   6.535  15.063  0.00  0.00    +0.094 C 
ATOM     12  H   GLY C   1      17.840   9.463  13.291  0.00  0.00    +0.000 HD
ATOM     13  H   GLY C   1      16.789   9.450  11.999  0.00  0.00    +0.000 HD
ATOM     14  H   GLY C   1      17.721   8.109  12.329  0.00  0.00    +0.000 HD
TER 
REMARK  Name = output/receptor_files/7CWK_Collagen_type_I_cleaned.pdb
REMARK                            x       y       z     vdW  Elec       q    Type
REMARK                         _______ _______ _______ _____ _____    ______ ____
ATOM      1  N   GLY D   1       8.550   8.216  11.739  0.00  0.00    -0.121 N 
ATOM      2  CA  GLY D   1       7.445   8.536  12.620  0.00  0.00    +0.196 C 
ATOM      3  C   GLY D   1       6.306   7.542  12.506  0.00  0.00    +0.261 C 
ATOM      4  O   GLY D   1       6.191   6.816  11.518  0.00  0.00    -0.272 OA
ATOM      5  N   GLN D   2       5.467   7.504  13.536  0.00  0.00    -0.197 N 
ATOM      6  CA  GLN D   2       4.296   6.641  13.522  0.00  0.00    +0.173 C 
ATOM      7  C   GLN D   2       3.279   7.143  12.502  0.00  0.00    +0.262 C 
ATOM      8  O   GLN D   2       3.185   8.341  12.224  0.00  0.00    -0.271 OA
ATOM      9  CB  GLN D   2       3.669   6.598  14.915  0.00  0.00    +0.041 C 
ATOM     10  CG  GLN D   2       2.492   5.657  15.056  0.00  0.00    +0.091 C 
ATOM     11  CD  GLN D   2       1.773   5.836  16.374  0.00  0.00    +0.261 C 
ATOM     12  OE1 GLN D   2       2.068   6.760  17.130  0.00  0.00    -0.272 OA
ATOM     13  NE2 GLN D   2       0.826   4.949  16.661  0.00  0.00    -0.088 N 
ATOM     14  N   ARG D   3       2.520   6.209  11.933  0.00  0.00    -0.196 N 
ATOM     15  CA  ARG D   3       1.404   6.584  11.076  0.00  0.00    +0.173 C 
ATOM     16  C   ARG D   3       0.410   7.427  11.860  0.00  0.00    +0.262 C 
ATOM     17  O   ARG D   3       0.081   7.113  13.007  0.00  0.00    -0.271 OA
ATOM     18  CB  ARG D   3       0.715   5.340  10.517  0.00  0.00    +0.033 C 
ATOM     19  CG  ARG D   3      -0.419   5.658   9.543  0.00  0.00    +0.029 C 
ATOM     20  CD  ARG D   3      -0.663   4.511   8.575  0.00  0.00    +0.129 C 
ATOM     21  NE  ARG D   3      -1.309   4.967   7.348  0.00  0.00    -0.234 N 
ATOM     22  CZ  ARG D   3      -1.674   4.159   6.358  0.00  0.00    +0.284 C 
ATOM     23  NH2 ARG D   3      -1.448   2.857   6.450  0.00  0.00    -0.104 N 
ATOM     24  NH1 ARG D   3      -2.259   4.651   5.275  0.00  0.00    -0.104 N 
ATOM     25  N   GLY D   4      -0.062   8.503  11.239  0.00  0.00    -0.194 N 
ATOM     26  CA  GLY D   4      -0.994   9.396  11.893  0.00  0.00    +0.201 C 
ATOM     27  C   GLY D   4      -2.313   8.724  12.223  0.00  0.00    +0.264 C 
ATOM     28  O   GLY D   4      -2.633   7.628  11.760  0.00  0.00    -0.271 OA
ATOM     29  N   GLU D   5      -3.094   9.406  13.057  0.00  0.00    -0.196 N 
ATOM     30  CA  GLU D   5      -4.388   8.883  13.461  0.00  0.00    +0.173 C 
ATOM     31  C   GLU D   5      -5.350   8.853  12.275  0.00  0.00    +0.262 C 
ATOM     32  O   GLU D   5      -5.207   9.595  11.299  0.00  0.00    -0.271 OA
ATOM     33  CB  GLU D   5      -4.975   9.715  14.603  0.00  0.00    +0.043 C 
ATOM     34  CG  GLU D   5      -4.282   9.477  15.937  0.00  0.00    +0.116 C 
ATOM     35  CD  GLU D   5      -4.710  10.455  17.012  0.00  0.00    +0.365 C 
ATOM     36  OE1 GLU D   5      -4.800  11.665  16.719  0.00  0.00    -0.246 OA
ATOM     37  OE2 GLU D   5      -4.952  10.011  18.153  0.00  0.00    -0.246 OA
ATOM     38  N   ARG D   6      -6.336   7.966  12.372  0.00  0.00    -0.196 N 
ATOM     39  CA  ARG D   6      -7.302   7.787  11.300  0.00  0.00    +0.173 C 
ATOM     40  C   ARG D   6      -8.167   9.033  11.141  0.00  0.00    +0.262 C 
ATOM     41  O   ARG D   6      -8.487   9.725  12.112  0.00  0.00    -0.271 OA
ATOM     42  CB  ARG D   6      -8.174   6.563  11.582  0.00  0.00    +0.033 C 
ATOM     43  CG  ARG D   6      -9.303   6.341  10.593  0.00  0.00    +0.029 C 
ATOM     44  CD  ARG D   6      -9.970   4.994  10.809  0.00  0.00    +0.129 C 
ATOM     45  NE  ARG D   6      -9.351   3.938  10.012  0.00  0.00    -0.234 N 
ATOM     46  CZ  ARG D   6      -8.646   2.933  10.521  0.00  0.00    +0.284 C 
ATOM     47  NH2 ARG D   6      -8.465   2.846  11.831  0.00  0.00    -0.104 N 
ATOM     48  NH1 ARG D   6      -8.121   2.016   9.721  0.00  0.00    -0.104 N 
ATOM     49  N   GLY D   7      -8.533   9.323   9.895  0.00  0.00    -0.194 N 
ATOM     50  CA  GLY D   7      -9.366  10.469   9.604  0.00  0.00    +0.201 C 
ATOM     51  C   GLY D   7     -10.758  10.354  10.200  0.00  0.00    +0.264 C 
ATOM     52  O   GLY D   7     -11.215   9.293  10.627  0.00  0.00    -0.271 OA
ATOM     53  N   PHE D   8     -11.446  11.492  10.216  0.00  0.00    -0.196 N 
ATOM     54  CA  PHE D   8     -12.777  11.572  10.788  0.00  0.00    +0.176 C 
ATOM     55  C   PHE D   8     -13.807  10.941   9.852  0.00  0.00    +0.246 C 
ATOM     56  O   PHE D   8     -13.569  10.810   8.649  0.00  0.00    -0.273 OA
ATOM     57  CB  PHE D   8     -13.137  13.029  11.063  0.00  0.00    +0.057 C 
ATOM     58  CG  PHE D   8     -12.250  13.688  12.080  0.00  0.00    -0.020 A 
ATOM     59  CD2 PHE D   8     -12.024  13.091  13.309  0.00  0.00    -0.004 A 
ATOM     60  CD1 PHE D   8     -11.636  14.899  11.805  0.00  0.00    -0.004 A 
ATOM     61  CE2 PHE D   8     -11.208  13.692  14.248  0.00  0.00    -0.000 A 
ATOM     62  CE1 PHE D   8     -10.818  15.504  12.740  0.00  0.00    -0.000 A 
ATOM     63  CZ  PHE D   8     -10.606  14.902  13.962  0.00  0.00    -0.000 A 
ATOM     64  N   PRO D   9     -14.961  10.534  10.385  0.00  0.00    -0.272 N 
ATOM     65  CA  PRO D   9     -16.009   9.980   9.519  0.00  0.00    +0.154 C 
ATOM     66  C   PRO D   9     -16.530  11.023   8.543  0.00  0.00    +0.260 C 
ATOM     67  O   PRO D   9     -16.469  12.228   8.791  0.00  0.00    -0.272 OA
ATOM     68  CB  PRO D   9     -17.099   9.544  10.508  0.00  0.00    +0.031 C 
ATOM     69  CG  PRO D   9     -16.818  10.315  11.758  0.00  0.00    +0.024 C 
ATOM     70  CD  PRO D   9     -15.333  10.466  11.808  0.00  0.00    +0.094 C 
ATOM     71  N   GLY D  10     -17.049  10.539   7.414  0.00  0.00    -0.194 N 
ATOM     72  CA  GLY D  10     -17.525  11.410   6.380  0.00  0.00    +0.200 C 
ATOM     73  C   GLY D  10     -18.850  12.054   6.739  0.00  0.00    +0.248 C 
ATOM     74  O   GLY D  10     -19.443  11.780   7.792  0.00  0.00    -0.273 OA
ATOM     75  N   PRO D  11     -19.331  12.937   5.851  0.00  0.00    -0.273 N 
ATOM     76  CA  PRO D  11     -20.622  13.608   6.025  0.00  0.00    +0.140 C 
ATOM     77  C   PRO D  11     -21.783  12.630   5.924  0.00  0.00    +0.227 C 
ATOM     78  O   PRO D  11     -21.603  11.518   5.427  0.00  0.00    -0.286 OA
ATOM     79  CB  PRO D  11     -20.661  14.616   4.866  0.00  0.00    +0.030 C 
ATOM     80  CG  PRO D  11     -19.255  14.713   4.372  0.00  0.00    +0.024 C 
ATOM     81  CD  PRO D  11     -18.647  13.375   4.625  0.00  0.00    +0.094 C 
ATOM     82  H   GLY D   1       9.288   8.911  11.853  0.00  0.00    +0.000 HD
ATOM     83  H   GLY D   1       8.226   8.219  10.772  0.00  0.00    +0.000 HD
ATOM     84  H   GLY D   1       8.914   7.292  11.972  0.00  0.00    +0.000 HD
ATOM     85  H   GLN D   2       5.641   8.070  14.323  0.00  0.00    +0.000 HD
ATOM     86  H   GLN D   2       0.622   4.224  16.027  0.00  0.00    +0.000 HD
ATOM     87  H   GLN D   2       0.329   5.017  17.508  0.00  0.00    +0.000 HD
ATOM     88  H   ARG D   3       2.715   5.257  12.093  0.00  0.00    +0.000 HD
ATOM     89  H   ARG D   3      -1.485   5.930   7.248  0.00  0.00    +0.000 HD
ATOM     90  H   ARG D   3      -1.718   2.258   5.717  0.00  0.00    +0.000 HD
ATOM     91  H   ARG D   3      -1.010   2.489   7.251  0.00  0.00    +0.000 HD
ATOM     92  H   ARG D   3      -2.528   4.049   4.544  0.00  0.00    +0.000 HD
ATOM     93  H   ARG D   3      -2.425   5.619   5.202  0.00  0.00    +0.000 HD
ATOM     94  H   GLY D   4       0.227   8.696  10.318  0.00  0.00    +0.000 HD
ATOM     95  H   GLU D   5      -2.791  10.276  13.405  0.00  0.00    +0.000 HD
ATOM     96  H   ARG D   6      -6.414   7.419  13.187  0.00  0.00    +0.000 HD
ATOM     97  H   ARG D   6      -9.463   3.973   9.035  0.00  0.00    +0.000 HD
ATOM     98  H   ARG D   6      -7.943   2.101  12.207  0.00  0.00    +0.000 HD
ATOM     99  H   ARG D   6      -8.853   3.526  12.428  0.00  0.00    +0.000 HD
ATOM    100  H   ARG D   6      -8.254   2.078   8.747  0.00  0.00    +0.000 HD
ATOM    101  H   ARG D   6      -7.598   1.273  10.100  0.00  0.00    +0.000 HD
ATOM    102  H   GLY D   7      -8.231   8.746   9.157  0.00  0.00    +0.000 HD
ATOM    103  H   PHE D   8     -11.041  12.302   9.829  0.00  0.00    +0.000 HD
ATOM    104  H   GLY D  10     -17.106   9.564   7.288  0.00  0.00    +0.000 HD
TER 
REMARK  Name = output/receptor_files/7CWK_Collagen_type_I_cleaned.pdb
REMARK                            x       y       z     vdW  Elec       q    Type
REMARK                         _______ _______ _______ _____ _____    ______ ____
ATOM      1  N   GLY E   1     -25.087  10.898   4.318  0.00  0.00    -0.121 N 
ATOM      2  CA  GLY E   1     -25.414  10.629   2.931  0.00  0.00    +0.194 C 
ATOM      3  C   GLY E   1     -26.487  11.549   2.384  0.00  0.00    +0.245 C 
ATOM      4  O   GLY E   1     -27.062  12.349   3.123  0.00  0.00    -0.273 OA
ATOM      5  N   PRO E   2     -26.755  11.449   1.075  0.00  0.00    -0.273 N 
ATOM      6  CA  PRO E   2     -27.846  12.206   0.455  0.00  0.00    +0.140 C 
ATOM      7  C   PRO E   2     -29.193  11.831   1.058  0.00  0.00    +0.227 C 
ATOM      8  O   PRO E   2     -29.359  10.705   1.529  0.00  0.00    -0.286 OA
ATOM      9  CB  PRO E   2     -27.772  11.793  -1.019  0.00  0.00    +0.030 C 
ATOM     10  CG  PRO E   2     -26.375  11.300  -1.210  0.00  0.00    +0.024 C 
ATOM     11  CD  PRO E   2     -25.999  10.660   0.089  0.00  0.00    +0.094 C 
ATOM     12  H   GLY E   1     -24.363  10.250   4.628  0.00  0.00    +0.000 HD
ATOM     13  H   GLY E   1     -25.920  10.777   4.893  0.00  0.00    +0.000 HD
ATOM     14  H   GLY E   1     -24.748  11.856   4.408  0.00  0.00    +0.000 HD
TER 
REMARK  Name = output/receptor_files/7CWK_Collagen_type_I_cleaned.pdb
REMARK                            x       y       z     vdW  Elec       q    Type
REMARK                         _______ _______ _______ _____ _____    ______ ____
ATOM      1  N   GLY F   1     -33.049  10.557   1.519  0.00  0.00    -0.121 N 
ATOM      2  CA  GLY F   1     -33.730   9.422   0.930  0.00  0.00    +0.194 C 
ATOM      3  C   GLY F   1     -34.695   9.809  -0.170  0.00  0.00    +0.245 C 
ATOM      4  O   GLY F   1     -35.083  10.972  -0.277  0.00  0.00    -0.273 OA
ATOM      5  N   PRO F   2     -35.084   8.833  -1.002  0.00  0.00    -0.273 N 
ATOM      6  CA  PRO F   2     -36.053   9.088  -2.071  0.00  0.00    +0.140 C 
ATOM      7  C   PRO F   2     -37.413   9.470  -1.504  0.00  0.00    +0.227 C 
ATOM      8  O   PRO F   2     -37.897   8.802  -0.590  0.00  0.00    -0.286 OA
ATOM      9  CB  PRO F   2     -36.129   7.747  -2.814  0.00  0.00    +0.030 C 
ATOM     10  CG  PRO F   2     -34.917   6.983  -2.381  0.00  0.00    +0.024 C 
ATOM     11  CD  PRO F   2     -34.638   7.431  -0.985  0.00  0.00    +0.094 C 
ATOM     12  H   GLY F   1     -32.416  10.232   2.250  0.00  0.00    +0.000 HD
ATOM     13  H   GLY F   1     -33.736  11.194   1.923  0.00  0.00    +0.000 HD
ATOM     14  H   GLY F   1     -32.515  11.044   0.799  0.00  0.00    +0.000 HD
TER 
REMARK  Name = output/receptor_files/7CWK_Collagen_type_I_cleaned.pdb
REMARK                            x       y       z     vdW  Elec       q    Type
REMARK                         _______ _______ _______ _____ _____    ______ ____
ATOM      1  N   GLY G   1     -41.151   9.354  -0.885  0.00  0.00    -0.122 N 
ATOM      2  CA  GLY G   1     -42.128   8.292  -1.034  0.00  0.00    +0.181 C 
ATOM      3  C   GLY G   1     -43.176   8.589  -2.089  0.00  0.00    +0.228 C 
ATOM      4  O   GLY G   1     -44.264   8.014  -2.074  0.00  0.00    -0.287 OA
ATOM      5  H   GLY G   1     -40.476   9.097  -0.165  0.00  0.00    +0.000 HD
ATOM      6  H   GLY G   1     -41.624  10.216  -0.615  0.00  0.00    +0.000 HD
ATOM      7  H   GLY G   1     -40.665   9.496  -1.771  0.00  0.00    +0.000 HD
TER 
MODEL 1
ROOT
ATOM      1  C   UNL     1      -6.123   8.575   5.892  0.00  0.00    +0.082 C 
ENDROOT
BRANCH   1   2
ATOM      2  C   UNL     1      -5.675   9.329   7.127  0.00  0.00    +0.311 C 
ATOM      3  O   UNL     1      -5.991   9.060   8.277  0.00  0.00    -0.251 OA
BRANCH   2   4
ATOM      4  O   UNL     1      -4.789  10.298   6.753  0.00  0.00    -0.461 OA
BRANCH   4   5
ATOM      5  C   UNL     1      -3.514  10.435   7.433  0.00  0.00    +0.110 C 
ATOM      6  C   UNL     1      -3.338  11.850   7.989  0.00  0.00    -0.027 C 
BRANCH   5   7
ATOM      7  C   UNL     1      -2.349   9.931   6.577  0.00  0.00    +0.081 C 
BRANCH   7   8
ATOM      8  C   UNL     1      -1.795   8.634   7.099  0.00  0.00    +0.308 C 
ATOM      9  O   UNL     1      -1.520   7.635   6.460  0.00  0.00    -0.251 OA
ATOM     10  O   UNL     1      -1.629   8.653   8.439  0.00  0.00    -0.481 OA
ENDBRANCH   7   8
ENDBRANCH   5   7
ENDBRANCH   4   5
ENDBRANCH   2   4
ENDBRANCH   1   2
BRANCH   1  11
ATOM     11  C   UNL     1      -5.369   7.283   5.553  0.00  0.00    +0.110 C 
ATOM     12  C   UNL     1      -4.399   7.406   4.379  0.00  0.00    -0.027 C 
BRANCH  11  13
ATOM     13  O   UNL     1      -4.709   6.521   6.603  0.00  0.00    -0.461 OA
BRANCH  13  14
ATOM     14  C   UNL     1      -5.181   5.365   7.129  0.00  0.00    +0.310 C 
ATOM     15  O   UNL     1      -5.065   4.251   6.641  0.00  0.00    -0.251 OA
BRANCH  14  16
ATOM     16  C   UNL     1      -5.862   5.606   8.452  0.00  0.00    +0.071 C 
BRANCH  16  17
ATOM     17  C   UNL     1      -4.894   5.866   9.599  0.00  0.00    +0.062 C 
ATOM     18  C   UNL     1      -4.040   4.670  10.008  0.00  0.00    -0.038 C 
BRANCH  17  19
ATOM     19  O   UNL     1      -4.013   6.931   9.215  0.00  0.00    -0.392 OA
ATOM     20  H   UNL     1      -3.591   6.713   8.369  0.00  0.00    +0.000 HD
ENDBRANCH  17  19
ENDBRANCH  16  17
ENDBRANCH  14  16
ENDBRANCH  13  14
ENDBRANCH  11  13
ENDBRANCH   1  11
TORSDOF 11
ENDMDL

